@<TRIPOS>MOLECULE
:1owh_ligand
44   46    1
SMALL
USER_CHARGES


@<TRIPOS>ATOM
      1 N18        17.0260   19.5340   33.8170 N.pl3     1 LIG        -0.8850 
      2 C17        18.3420   19.7790   34.0210 C.2       1 LIG         0.8270 
      3 N19        18.8990   20.9440   34.4160 N.pl3     1 LIG        -0.8850 
      4 C12        19.2400   18.6840   33.6740 C.ar      1 LIG        -0.1190 
      5 C13        20.5630   18.5360   34.1950 C.ar      1 LIG        -0.0900 
      6 C3         21.4750   17.5390   33.8390 C.ar      1 LIG         0.0680 
      7 C4         22.6920   17.4620   34.5200 C.ar      1 LIG        -0.1150 
      8 C5         23.5100   16.3800   34.1390 C.ar      1 LIG        -0.1150 
      9 C6         23.3010   15.4310   33.1170 C.ar      1 LIG        -0.1150 
     10 C1         22.0280   15.5900   32.5470 C.ar      1 LIG        -0.1150 
     11 C2         21.0740   16.5880   32.8630 C.ar      1 LIG         0.0990 
     12 C10        19.8070   16.5780   32.2680 C.ar      1 LIG        -0.1060 
     13 C11        18.9440   17.6150   32.6920 C.ar      1 LIG        -0.0900 
     14 C23        24.3060   14.4770   32.6780 C.2       1 LIG         0.6150 
     15 O35        25.1000   14.1030   33.5500 O.2       1 LIG        -0.5000 
     16 N24        24.4480   14.1640   31.3640 N.am      1 LIG        -0.3850 
     17 C25        25.3860   13.3270   30.7300 C.ar      1 LIG         0.0850 
     18 C30        25.9770   12.2390   31.4150 C.ar      1 LIG        -0.1150 
     19 C29        26.9420   11.4730   30.7230 C.ar      1 LIG        -0.1150 
     20 C28        27.1990   11.7810   29.3630 C.ar      1 LIG        -0.1150 
     21 C27        26.5550   12.8220   28.6630 C.ar      1 LIG        -0.1150 
     22 C26        25.7090   13.6600   29.4110 C.ar      1 LIG        -0.1150 
     23 C37        28.2610   10.9740   28.6540 C.3       1 LIG         0.3050 
     24 N38        29.6080   11.4260   28.9550 N.4       1 LIG        -0.3000 
     25 H181       16.7073   18.6070   33.5669 H         1 LIG         0.4455 
     26 H182       16.3404   20.2287   34.1001 H         1 LIG         0.4455 
     27 H191       19.8969   21.0212   34.5827 H         1 LIG         0.4455 
     28 H192       18.2901   21.7029   34.7009 H         1 LIG         0.4455 
     29 H13        20.8809   19.2260   34.9566 H         1 LIG         0.1290 
     30 H4         22.9791   18.1584   35.2947 H         1 LIG         0.1150 
     31 H5         24.4572   16.3284   34.6568 H         1 LIG         0.1150 
     32 H1         21.7628   14.9011   31.7611 H         1 LIG         0.1150 
     33 H10        19.5112   15.8457   31.5317 H         1 LIG         0.1410 
     34 H11        17.9731   17.6325   32.2186 H         1 LIG         0.1290 
     35 HN24       23.8326   14.6610   30.7367 H         1 LIG         0.3000 
     36 H30        25.7268   11.9879   32.4342 H         1 LIG         0.1150 
     37 H29        27.4465   10.6552   31.2166 H         1 LIG         0.1150 
     38 H27        26.7778   13.0376   27.6281 H         1 LIG         0.1150 
     39 H26        25.2398   14.5058   28.9298 H         1 LIG         0.1150 
     40 H371       28.1051   11.0143   27.5749 H         1 LIG         0.0600 
     41 H372       28.1692    9.9246   28.9381 H         1 LIG         0.0600 
     42 H381       30.2682   10.8115   28.4945 H         1 LIG         0.3300 
     43 H382       29.7322   12.3711   28.6227 H         1 LIG         0.3300 
     44 H383       29.7606   11.3911   29.9521 H         1 LIG         0.3300 
@<TRIPOS>BOND
     1    1    2 2    
     2    1   25 1    
     3    1   26 1    
     4    2    3 1    
     5    2    4 1    
     6    3   27 1    
     7    3   28 1    
     8    4    5 ar   
     9    4   13 ar   
    10    5    6 ar   
    11    5   29 1    
    12    6    7 ar   
    13    6   11 ar   
    14    7    8 ar   
    15    7   30 1    
    16    8    9 ar   
    17    8   31 1    
    18    9   10 ar   
    19    9   14 1    
    20   10   11 ar   
    21   10   32 1    
    22   11   12 ar   
    23   12   13 ar   
    24   12   33 1    
    25   13   34 1    
    26   14   15 2    
    27   14   16 am   BACKBONE|DICT|INTERRES
    28   16   17 1    
    29   16   35 1    
    30   17   18 ar   
    31   17   22 ar   
    32   18   19 ar   
    33   18   36 1    
    34   19   20 ar   
    35   19   37 1    
    36   20   21 ar   
    37   20   23 1    
    38   21   22 ar   
    39   21   38 1    
    40   22   39 1    
    41   23   24 1    
    42   23   40 1    
    43   23   41 1    
    44   24   42 1    
    45   24   43 1    
    46   24   44 1    
@<TRIPOS>SUBSTRUCTURE
     1 LIG         1 GROUP             0       ****    0 ROOT    
