@<TRIPOS>MOLECULE
:1a30_ligand
49   48    1
SMALL
USER_CHARGES


@<TRIPOS>ATOM
      1 N           4.8410   27.5760    5.3100 N.4       1 LIG        -0.3000 
      2 CA          5.7330   26.3940    5.1650 C.3       1 LIG         0.2500 
      3 C           7.1740   26.7720    5.5040 C.2       1 LIG         0.5000 
      4 O           7.6240   27.8870    5.2180 O.2       1 LIG        -0.5000 
      5 CB          5.6380   25.8180    3.7500 C.3       1 LIG        -0.1200 
      6 CG          5.8270   26.8460    2.6520 C.3       1 LIG        -0.2200 
      7 CD          5.6250   26.2750    1.2620 C.2       1 LIG         0.7000 
      8 OE1         4.6630   25.4970    1.0650 O.co2     1 LIG        -0.8000 
      9 OE2         6.4250   26.6200    0.3630 O.co2     1 LIG        -0.8000 
     10 N           7.8730   25.8560    6.1630 N.am      1 LIG        -0.5000 
     11 CA          9.2580   26.0720    6.5600 C.3       1 LIG         0.1400 
     12 C          10.1010   24.9180    6.0470 C.2       1 LIG         0.5000 
     13 O          10.1820   23.8640    6.6820 O.2       1 LIG        -0.5000 
     14 CB          9.3460   26.1960    8.0790 C.3       1 LIG        -0.2200 
     15 CG          8.6490   27.4410    8.5880 C.2       1 LIG         0.7000 
     16 OD1         9.2700   28.5180    8.5210 O.co2     1 LIG        -0.8000 
     17 OD2         7.4740   27.3570    9.0120 O.co2     1 LIG        -0.8000 
     18 N          10.6860   25.1150    4.8690 N.am      1 LIG        -0.5000 
     19 CA         11.4980   24.0930    4.2260 C.3       1 LIG         0.0400 
     20 C          12.9840   24.3990    4.2680 C.2       1 LIG         0.7000 
     21 O          13.7840   23.4420    4.1920 O.co2     1 LIG        -0.8000 
     22 CB         11.0380   23.9220    2.7850 C.3       1 LIG        -0.1200 
     23 CG          9.5830   23.4660    2.7700 C.3       1 LIG        -0.0600 
     24 CD1         8.8190   24.1970    1.7080 C.3       1 LIG        -0.1800 
     25 CD2         9.5210   21.9550    2.6020 C.3       1 LIG        -0.1800 
     26 OXT        13.3340   25.5920    4.3780 O.co2     1 LIG        -0.8000 
     27 H1          3.8990   27.3376    5.0394 H         1 LIG         0.3300 
     28 H2          4.8597   27.8853    6.2716 H         1 LIG         0.3300 
     29 H3          5.1911   28.3294    4.7285 H         1 LIG         0.3300 
     30 HA          5.3257   25.7093    5.8945 H         1 LIG         0.0600 
     31 HB1         4.6577   25.3503    3.6466 H         1 LIG         0.0600 
     32 HB2         6.3605   25.0080    3.6297 H         1 LIG         0.0600 
     33 HG1         6.8162   27.3025    2.7058 H         1 LIG         0.0600 
     34 HG2         5.1025   27.6391    2.7721 H         1 LIG         0.0600 
     35 HN          7.4418   24.9684    6.3908 H         1 LIG         0.3000 
     36 HA          9.6482   26.9734    6.1350 H         1 LIG         0.0600 
     37 HB1        10.3899   26.2406    8.3921 H         1 LIG         0.0600 
     38 HB2         8.9128   25.3230    8.5708 H         1 LIG         0.0600 
     39 HN         10.6112   26.0127    4.4085 H         1 LIG         0.3000 
     40 HA         11.3803   23.1243    4.7116 H         1 LIG         0.0600 
     41 HB1        11.6776   23.2196    2.2486 H         1 LIG         0.0600 
     42 HB2        11.1525   24.8791    2.2717 H         1 LIG         0.0600 
     43 HG          9.0574   23.6773    3.6999 H         1 LIG         0.0600 
     44 HD11        7.8639   23.7239    1.4771 H         1 LIG         0.0600 
     45 HD12        8.6121   25.2215    2.0201 H         1 LIG         0.0600 
     46 HD13        9.4261   24.2647    0.8106 H         1 LIG         0.0600 
     47 HD21        8.4900   21.6039    2.5858 H         1 LIG         0.0600 
     48 HD22       10.0003   21.6238    1.6796 H         1 LIG         0.0600 
     49 HD23       10.0164   21.4736    3.4425 H         1 LIG         0.0600 
@<TRIPOS>BOND
     1    1    2 1    
     2    1   27 1    
     3    1   28 1    
     4    1   29 1    
     5    2    3 1    
     6    2    5 1    
     7    2   30 1    
     8    3    4 2    
     9    3   10 am   BACKBONE|DICT|INTERRES
    10    5    6 1    
    11    5   31 1    
    12    5   32 1    
    13    6    7 1    
    14    6   33 1    
    15    6   34 1    
    16    7    8 2    
    17    7    9 1    
    18   10   11 1    
    19   10   35 1    
    20   11   12 1    
    21   11   14 1    
    22   11   36 1    
    23   12   13 2    
    24   12   18 am   BACKBONE|DICT|INTERRES
    25   14   15 1    
    26   14   37 1    
    27   14   38 1    
    28   15   16 2    
    29   15   17 1    
    30   18   19 1    
    31   18   39 1    
    32   19   20 1    
    33   19   22 1    
    34   19   40 1    
    35   20   26 1    
    36   20   21 2    
    37   22   23 1    
    38   22   41 1    
    39   22   42 1    
    40   23   25 1    
    41   23   24 1    
    42   23   43 1    
    43   24   44 1    
    44   24   45 1    
    45   24   46 1    
    46   25   47 1    
    47   25   48 1    
    48   25   49 1    
@<TRIPOS>SUBSTRUCTURE
     1 LIG         1 GROUP             0       ****    0 ROOT    
