@<TRIPOS>MOLECULE
:3n7a_ligand
21   21    1
SMALL
USER_CHARGES


@<TRIPOS>ATOM
      1 C2         44.1930    7.4980   26.9400 C.3       1 LIG        -0.1200 
      2 C3         43.1350    7.7950   25.8900 C.3       1 LIG         0.2050 
      3 O3         42.6860    9.1730   26.0020 O.3       1 LIG        -0.6830 
      4 C4         43.7180    7.5280   24.5000 C.3       1 LIG         0.2050 
      5 O4         42.6520    7.6230   23.5870 O.3       1 LIG        -0.6830 
      6 C5         44.3450    6.1470   24.4450 C.2       1 LIG        -0.1150 
      7 C6         44.7570    5.4970   25.6020 C.2       1 LIG        -0.1150 
      8 C          45.9970    5.7860   27.5490 C.2       1 LIG         0.7000 
      9 O1         46.4530    6.8120   28.4250 O.co2     1 LIG        -0.8000 
     10 O30        43.6030    5.1380   27.5580 O.3       1 LIG        -0.6830 
     11 O2         46.1060    4.4790   28.0570 O.co2     1 LIG        -0.8000 
     12 C1         44.6090    6.0040   26.9170 C.3       1 LIG         0.1650 
     13 H21        43.8381    7.7867   27.9230 H         1 LIG         0.0600 
     14 H22        45.0532    8.1395   26.7395 H         1 LIG         0.0600 
     15 H3         42.2694    7.1539   26.0670 H         1 LIG         0.0600 
     16 HO3        41.8442    9.1811   26.4427 H         1 LIG         0.4180 
     17 H4         44.4795    8.2625   24.2372 H         1 LIG         0.0600 
     18 HO4        41.9579    7.0502   23.8744 H         1 LIG         0.4180 
     19 H5         44.4904    5.6938   23.4736 H         1 LIG         0.1150 
     20 H6         45.1947    4.5126   25.4977 H         1 LIG         0.1150 
     21 HO30       43.9468    4.2548   27.6040 H         1 LIG         0.4180 
@<TRIPOS>BOND
     1    1    2 1    
     2    1   12 1    
     3    1   13 1    
     4    1   14 1    
     5    2    3 1    
     6    2    4 1    
     7    2   15 1    
     8    3   16 1    
     9    4    5 1    
    10    4    6 1    
    11    4   17 1    
    12    5   18 1    
    13    6    7 2    
    14    6   19 1    
    15    7   12 1    
    16    7   20 1    
    17    8    9 2    
    18    8   11 1    
    19    8   12 1    
    20   10   12 1    
    21   10   21 1    
@<TRIPOS>SUBSTRUCTURE
     1 LIG         1 GROUP             0       ****    0 ROOT    
