3nw9_ligand

Created by X-TOOL on Fri Nov 18 16:25:30 2016
 62 66  0  0  0  0  0  0  0  0999 V2000
   -4.5520   21.3580   13.8700  C 0  0  0  2  0  4
   -4.9640   20.7930   15.2380  C 0  0  0  2  0  4
   -5.6940   21.8020   15.9520  O 0  0  0  2  0  2
   -3.6080   20.4670   15.8680  C 0  0  0  2  0  4
   -2.8750   21.6380   16.2560  O 0  0  0  2  0  2
   -2.9100   19.9120   14.6360  C 0  0  0  2  0  4
   -8.7350   21.6300    9.2800  C 0  0  0  4  0  4
   -7.0700   20.1570   11.5080  N 0  0  0  1  0  2
   -6.2490   19.9830   12.4920  C 0  0  0  2  0  3
   -5.6170   21.1970   12.8620  N 0  0  0  1  0  3
   -6.1200   22.1500   11.9970  C 0  0  0  1  0  3
   -6.9880   21.4640   11.1670  C 0  0  0  1  0  3
   -3.3990   20.6230   13.4490  O 0  0  0  1  0  2
   -3.2600   18.4530   14.5480  C 0  0  0  2  0  3
   -2.5710   17.6950   13.7340  C 0  0  0  2  0  3
   -2.8960   16.2620   13.5590  C 0  0  0  3  0  4
   -1.5760   15.6450   13.6800  N 0  0  0  2  0  3
   -1.6050   14.3830   14.2030  C 0  0  0  1  0  3
   -2.6650   13.8920   14.6020  O 0  0  0  1  0  1
   -0.3160   13.7300   14.4410  C 0  0  0  1  0  3
   -0.3280   12.5350   15.1860  C 0  0  0  2  0  3
    0.8530   11.8320   15.4240  C 0  0  0  1  0  3
    2.0970   12.2920   14.9480  C 0  0  0  2  0  3
    0.7630   10.5780   16.2320  C 0  0  0  1  0  3
   -0.1400   10.5370   17.2750  C 0  0  0  2  0  3
   -0.1850    9.3640   18.0230  C 0  0  0  2  0  3
    1.6050    9.5480   15.8740  C 0  0  0  2  0  3
    1.5960    8.3670   16.6280  C 0  0  0  2  0  3
    0.6690    8.3320   17.6380  C 0  0  0  1  0  3
    0.7100    7.1280   18.3450  F 0  0  0  1  0  1
    0.8980   14.1650   13.9150  C 0  0  0  1  0  3
    1.0200   15.3210   13.2110  O 0  0  0  2  0  2
    2.0780   13.4830   14.2130  C 0  0  0  1  0  3
    3.3020   13.9580   13.7300  O 0  0  0  2  0  2
   -7.6780   22.2130   10.1960  C 0  0  0  1  0  3
   -7.3920   23.5200   10.1170  N 0  0  0  1  0  2
   -6.4840   24.1120   10.9600  C 0  0  0  2  0  3
   -5.8100   23.4560   11.9050  N 0  0  0  1  0  2
   -4.3070   22.4257   13.9700  H 0  0  0  1  0  1
   -5.5813   19.8878   15.1406  H 0  0  0  1  0  1
   -5.1422   22.5661   16.0709  H 0  0  0  1  0  1
   -3.6871   19.7525   16.7006  H 0  0  0  1  0  1
   -2.7163   22.1788   15.4912  H 0  0  0  1  0  1
   -1.8205   20.0365   14.7230  H 0  0  0  1  0  1
   -9.1199   22.4181    8.6161  H 0  0  0  1  0  1
   -9.5600   21.2240    9.8838  H 0  0  0  1  0  1
   -8.2924   20.8248    8.6752  H 0  0  0  1  0  1
   -6.0661   19.0245   12.9756  H 0  0  0  1  0  1
   -4.0681   18.0366   15.1476  H 0  0  0  1  0  1
   -1.7425   18.1269   13.1746  H 0  0  0  1  0  1
   -3.3405   16.0688   12.5715  H 0  0  0  1  0  1
   -3.5789   15.9063   14.3445  H 0  0  0  1  0  1
   -0.7309   16.1038   13.4056  H 0  0  0  1  0  1
   -1.2652   12.1574   15.5787  H 0  0  0  1  0  1
    3.0178   11.7533   15.1404  H 0  0  0  1  0  1
   -0.7841   11.3790   17.5011  H 0  0  0  1  0  1
   -0.8552    9.2577   18.8683  H 0  0  0  1  0  1
    2.2655    9.6498   15.0205  H 0  0  0  1  0  1
    2.2711    7.5428   16.4280  H 0  0  0  1  0  1
    1.9245   15.4333   12.9431  H 0  0  0  1  0  1
    4.0004   13.3834   14.0209  H 0  0  0  1  0  1
   -6.3046   25.1755   10.8507  H 0  0  0  1  0  1
  1  2  1  0  0  1
 10  1  1  0  0  2
  1 13  1  0  0  1
  2  3  1  0  0  2
  2  4  1  0  0  1
  4  5  1  0  0  2
  6  4  1  0  0  1
 13  6  1  0  0  1
  6 14  1  0  0  2
 35  7  1  0  0  2
  8  9  2  0  0  1
 12  8  1  0  0  1
 10  9  1  0  0  1
 11 10  1  0  0  1
 12 11  4  0  0  1
 11 38  4  0  0  1
 12 35  4  0  0  1
 14 15  2  0  0  2
 15 16  1  0  0  2
 16 17  1  0  0  2
 17 18  1  0  0  2
 18 19  2  0  0  2
 18 20  1  0  0  2
 20 21  4  0  0  1
 20 31  4  0  0  1
 21 22  4  0  0  1
 22 23  4  0  0  1
 22 24  1  0  0  2
 23 33  4  0  0  1
 24 25  4  0  0  1
 24 27  4  0  0  1
 25 26  4  0  0  1
 26 29  4  0  0  1
 27 28  4  0  0  1
 28 29  4  0  0  1
 29 30  1  0  0  2
 31 32  1  0  0  2
 31 33  4  0  0  1
 33 34  1  0  0  2
 35 36  4  0  0  1
 36 37  4  0  0  1
 37 38  4  0  0  1
  1 39  1  0  0  2
  2 40  1  0  0  2
  3 41  1  0  0  2
  4 42  1  0  0  2
  5 43  1  0  0  2
  6 44  1  0  0  2
  7 45  1  0  0  2
  7 46  1  0  0  2
  7 47  1  0  0  2
  9 48  1  0  0  2
 14 49  1  0  0  2
 15 50  1  0  0  2
 16 51  1  0  0  2
 16 52  1  0  0  2
 17 53  1  0  0  2
 21 54  1  0  0  2
 23 55  1  0  0  2
 25 56  1  0  0  2
 26 57  1  0  0  2
 27 58  1  0  0  2
 28 59  1  0  0  2
 32 60  1  0  0  2
 34 61  1  0  0  2
 37 62  1  0  0  2
M  END
> <MOLECULAR_FORMULA>
C26H24N5O6F

> <MOLECULAR_WEIGHT>
521.3

> <NUM_HB_ATOMS>
11 

> <NUM_ROTOR>
4  

> <XLOGP2>
2.92 

$$$$
