@<TRIPOS>MOLECULE
:3nw9_ligand
62   66    1
SMALL
USER_CHARGES


@<TRIPOS>ATOM
      1 C1         -4.5520   21.3580   13.8700 C.3       1 LIG         0.2225 
      2 C2         -4.9640   20.7930   15.2380 C.3       1 LIG         0.2050 
      3 O3         -5.6940   21.8020   15.9520 O.3       1 LIG        -0.6830 
      4 C4         -3.6080   20.4670   15.8680 C.3       1 LIG         0.2050 
      5 O5         -2.8750   21.6380   16.2560 O.3       1 LIG        -0.6830 
      6 C6         -2.9100   19.9120   14.6360 C.3       1 LIG         0.2390 
      7 C7         -8.7350   21.6300    9.2800 C.3       1 LIG        -0.0650 
      8 N8         -7.0700   20.1570   11.5080 N.2       1 LIG        -0.6252 
      9 C9         -6.2490   19.9830   12.4920 C.ar      1 LIG         0.4010 
     10 N10        -5.6170   21.1970   12.8620 N.pl3     1 LIG        -0.4022 
     11 C11        -6.1200   22.1500   11.9970 C.ar      1 LIG         0.7565 
     12 C12        -6.9880   21.4640   11.1670 C.ar      1 LIG         0.0380 
     13 O13        -3.3990   20.6230   13.4490 O.3       1 LIG        -0.4000 
     14 C14        -3.2600   18.4530   14.5480 C.2       1 LIG        -0.1840 
     15 C15        -2.5710   17.6950   13.7340 C.2       1 LIG        -0.1150 
     16 C16        -2.8960   16.2620   13.5590 C.3       1 LIG         0.0800 
     17 N17        -1.5760   15.6450   13.6800 N.am      1 LIG        -0.5000 
     18 C18        -1.6050   14.3830   14.2030 C.2       1 LIG         0.6150 
     19 O19        -2.6650   13.8920   14.6020 O.2       1 LIG        -0.5000 
     20 C20        -0.3160   13.7300   14.4410 C.ar      1 LIG        -0.1150 
     21 C21        -0.3280   12.5350   15.1860 C.ar      1 LIG        -0.1150 
     22 C22         0.8530   11.8320   15.4240 C.ar      1 LIG         0.0000 
     23 C23         2.0970   12.2920   14.9480 C.ar      1 LIG        -0.1150 
     24 C24         0.7630   10.5780   16.2320 C.ar      1 LIG         0.0000 
     25 C25        -0.1400   10.5370   17.2750 C.ar      1 LIG        -0.1150 
     26 C26        -0.1850    9.3640   18.0230 C.ar      1 LIG        -0.1150 
     27 C27         1.6050    9.5480   15.8740 C.ar      1 LIG        -0.1150 
     28 C28         1.5960    8.3670   16.6280 C.ar      1 LIG        -0.1150 
     29 C29         0.6690    8.3320   17.6380 C.ar      1 LIG         0.2200 
     30 F30         0.7100    7.1280   18.3450 F         1 LIG        -0.2200 
     31 C31         0.8980   14.1650   13.9150 C.ar      1 LIG         0.1500 
     32 O32         1.0200   15.3210   13.2110 O.3       1 LIG        -0.4600 
     33 C33         2.0780   13.4830   14.2130 C.ar      1 LIG         0.1500 
     34 O34         3.3020   13.9580   13.7300 O.3       1 LIG        -0.4600 
     35 C35        -7.6780   22.2130   10.1960 C.ar      1 LIG         0.3125 
     36 N38        -7.3920   23.5200   10.1170 N.ar      1 LIG        -0.7325 
     37 C39        -6.4840   24.1120   10.9600 C.ar      1 LIG         0.6093 
     38 N40        -5.8100   23.4560   11.9050 N.ar      1 LIG        -0.7701 
     39 H1         -4.3260   22.4206   13.8746 H         1 LIG         0.1000 
     40 H2         -5.5723   19.8954   15.1248 H         1 LIG         0.0600 
     41 HO3        -5.1894   22.6145   15.9630 H         1 LIG         0.4180 
     42 H4         -3.6655   19.7766   16.7109 H         1 LIG         0.0600 
     43 HO5        -2.9317   22.3161   15.5871 H         1 LIG         0.4180 
     44 H6         -1.8243   20.0089   14.7032 H         1 LIG         0.0300 
     45 H71        -9.3052   22.4215    8.7963 H         1 LIG         0.0600 
     46 H72        -8.2906   21.0021    8.5099 H         1 LIG         0.0600 
     47 H73        -9.4236   21.0226    9.8658 H         1 LIG         0.0600 
     48 H9         -6.0316   19.0342   12.9532 H         1 LIG         0.1197 
     49 H14        -4.0798   18.0626   15.1341 H         1 LIG         0.1150 
     50 H15        -1.7580   18.1126   13.1733 H         1 LIG         0.1150 
     51 H161       -3.3552   16.0250   12.6129 H         1 LIG         0.0600 
     52 H162       -3.6163   15.9951   14.3356 H         1 LIG         0.0600 
     53 HN17       -0.7286   16.1708   13.5312 H         1 LIG         0.3000 
     54 H21        -1.2634   12.1443   15.5589 H         1 LIG         0.1150 
     55 H23         3.0246   11.7891   15.1554 H         1 LIG         0.1150 
     56 H25        -0.7682   11.3734   17.5434 H         1 LIG         0.1150 
     57 H26        -0.8565    9.2553   18.8617 H         1 LIG         0.1150 
     58 H27         2.2694    9.6284   15.0282 H         1 LIG         0.1150 
     59 H28         2.2398    7.5302   16.4009 H         1 LIG         0.1150 
     60 HO32        0.3901   15.6823   12.6462 H         1 LIG         0.3100 
     61 HO34        3.4399   14.7493   14.2263 H         1 LIG         0.3100 
     62 H39        -6.2792   25.1640   10.8305 H         1 LIG         0.0555 
@<TRIPOS>BOND
     1    1    2 1    
     2    1   10 1    
     3    1   13 1    
     4    1   39 1    
     5    2    3 1    
     6    2    4 1    
     7    2   40 1    
     8    3   41 1    
     9    4    5 1    
    10    4    6 1    
    11    4   42 1    
    12    5   43 1    
    13    6   13 1    
    14    6   14 1    
    15    6   44 1    
    16    7   35 1    
    17    7   45 1    
    18    7   46 1    
    19    7   47 1    
    20    8    9 ar   
    21    8   12 ar   
    22    9   10 ar   
    23    9   48 1    
    24   10   11 ar   
    25   11   12 ar   
    26   11   38 ar   
    27   12   35 ar   
    28   14   15 2    
    29   14   49 1    
    30   15   16 1    
    31   15   50 1    
    32   16   17 1    
    33   16   51 1    
    34   16   52 1    
    35   17   18 am   BACKBONE|DICT|INTERRES
    36   17   53 1    
    37   18   19 2    
    38   18   20 1    
    39   20   21 ar   
    40   20   31 ar   
    41   21   22 ar   
    42   21   54 1    
    43   22   23 ar   
    44   22   24 1    
    45   23   33 ar   
    46   23   55 1    
    47   24   25 ar   
    48   24   27 ar   
    49   25   26 ar   
    50   25   56 1    
    51   26   29 ar   
    52   26   57 1    
    53   27   28 ar   
    54   27   58 1    
    55   28   29 ar   
    56   28   59 1    
    57   29   30 1    
    58   31   32 1    
    59   31   33 ar   
    60   32   60 1    
    61   33   34 1    
    62   34   61 1    
    63   35   36 ar   
    64   36   37 ar   
    65   37   38 ar   
    66   37   62 1    
@<TRIPOS>SUBSTRUCTURE
     1 LIG         1 GROUP             0       ****    0 ROOT    
