@<TRIPOS>MOLECULE
:1u1b_ligand
74   78    1
SMALL
USER_CHARGES


@<TRIPOS>ATOM
      1 PA        -30.2210  -29.4080   17.2920 P.3       1 LIG         1.3611 
      2 O1A       -31.3890  -30.1680   17.9270 O.co2     1 LIG        -0.9700 
      3 O2A       -30.3730  -29.0440   15.8110 O.co2     1 LIG        -0.9700 
      4 O5        -29.9020  -28.0700   18.0980 O.3       1 LIG        -0.6100 
      5 PB        -28.1590  -30.8560   18.7490 P.3       1 LIG         1.3611 
      6 O1B       -27.0860  -29.9510   19.2030 O.co2     1 LIG        -0.9700 
      7 O2B       -29.2100  -31.2550   19.7120 O.co2     1 LIG        -0.9700 
      8 O3A       -28.8710  -30.2140   17.4950 O.3       1 LIG        -0.0222 
      9 PG        -34.8930  -26.7760   18.1550 P.3       1 LIG         1.9199 
     10 O1G       -34.7020  -26.9210   19.6630 O.co2     1 LIG        -1.1200 
     11 O2G       -36.1220  -25.9620   17.7740 O.co2     1 LIG        -1.1200 
     12 O3G       -34.8950  -28.1500   17.4600 O.co2     1 LIG        -1.1200 
     13 N9A       -29.7730  -23.9820   16.1300 N.pl3     1 LIG        -0.5000 
     14 C4A       -28.8580  -24.4270   15.1830 C.ar      1 LIG         0.3800 
     15 N3A       -28.7370  -25.6860   14.6560 N.ar      1 LIG        -0.5500 
     16 C2A       -27.7210  -25.7640   13.7410 C.ar      1 LIG         0.2200 
     17 N1A       -26.8770  -24.7630   13.3350 N.ar      1 LIG        -0.5300 
     18 C6A       -27.0260  -23.5070   13.8830 C.ar      1 LIG         0.4400 
     19 N6A       -26.2020  -22.5460   13.4760 N.pl3     1 LIG        -0.8100 
     20 C5A       -28.0660  -23.3020   14.8620 C.ar      1 LIG         0.1500 
     21 N7A       -28.4730  -22.1930   15.5880 N.2       1 LIG        -0.4900 
     22 C8A       -29.4760  -22.6410   16.3160 C.ar      1 LIG         0.2000 
     23 C5        -30.8270  -27.5380   19.0200 C.3       1 LIG         0.0800 
     24 C4        -31.4240  -26.2850   18.4610 C.3       1 LIG         0.1700 
     25 O4        -30.3690  -25.3940   17.9690 O.3       1 LIG        -0.4000 
     26 C1        -30.8710  -24.6990   16.8490 C.3       1 LIG         0.4500 
     27 C2        -31.6670  -25.7980   16.1180 C.3       1 LIG         0.2050 
     28 O2        -32.5430  -25.2970   15.1170 O.3       1 LIG        -0.6830 
     29 C3        -32.3640  -26.5250   17.2780 C.3       1 LIG         0.1400 
     30 O3        -33.6160  -25.9150   17.6040 O.3       1 LIG        -0.7600 
     31 O5        -25.7810  -33.8130   14.1660 O.3       1 LIG        -0.7600 
     32 C5        -27.0380  -33.6820   14.8750 C.3       1 LIG         0.0800 
     33 C4        -26.8140  -33.6990   16.3790 C.3       1 LIG         0.1700 
     34 O4        -25.5540  -34.3540   16.6930 O.3       1 LIG        -0.4000 
     35 C1        -24.8450  -33.5810   17.6400 C.3       1 LIG         0.5100 
     36 C2        -25.2930  -32.1420   17.4180 C.3       1 LIG        -0.1200 
     37 C3        -26.7470  -32.3010   17.0050 C.3       1 LIG         0.1400 
     38 O3        -27.5880  -32.2610   18.1600 O.3       1 LIG        -0.6100 
     39 PD        -25.4210  -32.9050   12.8410 P.3       1 LIG         1.9199 
     40 O1D       -24.3250  -33.6930   12.0980 O.co2     1 LIG        -1.1200 
     41 O2D       -24.9230  -31.5400   13.3680 O.co2     1 LIG        -1.1200 
     42 O3D       -26.7240  -32.7970   12.0290 O.co2     1 LIG        -1.1200 
     43 N1T       -23.3680  -33.7610   17.4380 N.pl3     1 LIG        -0.6000 
     44 C6T       -22.7850  -33.7800   16.1450 C.ar      1 LIG         0.0800 
     45 C2T       -22.5700  -33.9130   18.5980 C.ar      1 LIG         0.5000 
     46 O2T       -23.0220  -33.9050   19.7200 O.2       1 LIG        -0.4000 
     47 N3T       -21.2080  -34.0720   18.3510 N.pl3     1 LIG        -0.5100 
     48 C4T       -20.5700  -34.0950   17.0950 C.ar      1 LIG         0.4500 
     49 O4T       -19.3450  -34.2320   17.0580 O.2       1 LIG        -0.4200 
     50 C5T       -21.4570  -33.9380   15.9370 C.ar      1 LIG        -0.0700 
     51 CM5       -20.9140  -33.9420   14.5430 C.3       1 LIG        -0.1400 
     52 H2A       -27.5664  -26.7330   13.2890 H         1 LIG         0.2000 
     53 H6A1      -26.2939  -21.5991   13.8237 H         1 LIG         0.3700 
     54 H6A2      -25.4453  -22.7697   12.8457 H         1 LIG         0.3700 
     55 H8A       -29.9716  -22.0925   17.0892 H         1 LIG         0.2000 
     56 H51       -30.3282  -27.3690   19.9665 H         1 LIG         0.0600 
     57 H52       -31.6409  -28.2139   19.2563 H         1 LIG         0.0600 
     58 H4        -31.9606  -25.7648   19.2562 H         1 LIG         0.0300 
     59 H1        -31.5327  -23.9041   17.2002 H         1 LIG         0.1000 
     60 H2        -30.9601  -26.4832   15.6562 H         1 LIG         0.0600 
     61 HO2       -33.3025  -24.9481   15.5611 H         1 LIG         0.4180 
     62 H3        -32.4975  -27.5795   17.0389 H         1 LIG         0.0600 
     63 H51       -27.6409  -34.5445   14.5914 H         1 LIG         0.0600 
     64 H52       -27.5960  -32.8016   14.5537 H         1 LIG         0.0600 
     65 H4        -27.6246  -34.2570   16.8498 H         1 LIG         0.0300 
     66 H1        -25.1331  -33.9628   18.6209 H         1 LIG         0.1000 
     67 H21       -24.7262  -31.7216   16.5865 H         1 LIG         0.0600 
     68 H22       -25.1317  -31.5344   18.3080 H         1 LIG         0.0600 
     69 H3        -27.0366  -31.5145   16.3073 H         1 LIG         0.0600 
     70 H6T       -23.4428  -33.6538   15.2974 H         1 LIG         0.1000 
     71 HN3T      -20.6096  -34.2031   19.1611 H         1 LIG         0.3600 
     72 HM51      -20.3549  -34.8592   14.3566 H         1 LIG         0.0800 
     73 HM52      -21.6995  -33.8712   13.7887 H         1 LIG         0.0800 
     74 HM53      -20.2416  -33.0947   14.4026 H         1 LIG         0.0800 
@<TRIPOS>BOND
     1    1    2 2    
     2    1    3 1    
     3    1    4 1    
     4    1    8 1    
     5    4   23 1    
     6    5    6 2    
     7    5    7 1    
     8    5    8 1    
     9    5   38 1    
    10    9   10 2    
    11    9   11 1    
    12    9   12 1    
    13    9   30 1    
    14   13   14 ar   
    15   13   22 ar   
    16   13   26 1    
    17   14   15 ar   
    18   14   20 ar   
    19   15   16 ar   
    20   16   17 ar   
    21   16   52 1    
    22   17   18 ar   
    23   18   19 1    
    24   18   20 ar   
    25   19   53 1    
    26   19   54 1    
    27   20   21 ar   
    28   21   22 ar   
    29   22   55 1    
    30   23   24 1    
    31   23   56 1    
    32   23   57 1    
    33   24   25 1    
    34   24   29 1    
    35   24   58 1    
    36   25   26 1    
    37   26   27 1    
    38   26   59 1    
    39   27   28 1    
    40   27   29 1    
    41   27   60 1    
    42   28   61 1    
    43   29   30 1    
    44   29   62 1    
    45   31   32 1    
    46   31   39 1    
    47   32   33 1    
    48   32   63 1    
    49   32   64 1    
    50   33   34 1    
    51   33   37 1    
    52   33   65 1    
    53   34   35 1    
    54   35   36 1    
    55   35   43 1    
    56   35   66 1    
    57   36   37 1    
    58   36   67 1    
    59   36   68 1    
    60   37   38 1    
    61   37   69 1    
    62   39   40 2    
    63   39   41 1    
    64   39   42 1    
    65   43   44 ar   
    66   43   45 ar   
    67   44   50 ar   
    68   44   70 1    
    69   45   46 2    
    70   45   47 ar   
    71   47   48 ar   
    72   47   71 1    
    73   48   49 2    
    74   48   50 ar   
    75   50   51 1    
    76   51   72 1    
    77   51   73 1    
    78   51   74 1    
@<TRIPOS>SUBSTRUCTURE
     1 LIG         1 GROUP             0       ****    0 ROOT    
