@<TRIPOS>MOLECULE
:3fur_ligand
42   45    1
SMALL
USER_CHARGES


@<TRIPOS>ATOM
      1 CL32        2.1080    5.0210   27.2770 Cl        1 LIG        -0.1800 
      2 C31         3.7200    4.9400   28.0550 C.ar      1 LIG         0.1800 
      3 C30         3.6880    4.9240   29.4520 C.ar      1 LIG        -0.1150 
      4 C28         4.8650    4.8410   30.1890 C.ar      1 LIG         0.1800 
      5 CL29        4.7320    4.8240   31.9820 Cl        1 LIG        -0.1800 
      6 C27         6.0920    4.7980   29.5130 C.ar      1 LIG        -0.1150 
      7 C26         6.1210    4.8310   28.1070 C.ar      1 LIG        -0.1150 
      8 C25         4.9390    4.8990   27.3460 C.ar      1 LIG        -0.3952 
      9 S20         5.0330    4.8850   25.7120 S.o2      1 LIG         1.7581 
     10 O21         4.2050    3.8090   25.2180 O.2       1 LIG        -0.7841 
     11 O22         6.4030    4.6910   25.3230 O.2       1 LIG        -0.7841 
     12 N23         4.4560    6.2160   25.0500 N.2       1 LIG        -0.2523 
     13 C13         4.9750    7.4640   25.1130 C.ar      1 LIG        -0.5424 
     14 C14         4.1680    8.4970   24.6460 C.ar      1 LIG        -0.1150 
     15 C15         4.6280    9.7950   24.6660 C.ar      1 LIG         0.1800 
     16 CL16        3.5620   11.0820   24.0410 Cl        1 LIG        -0.1800 
     17 C17         5.8880   10.0820   25.1740 C.ar      1 LIG         0.0850 
     18 C18         6.6860    9.0610   25.6370 C.ar      1 LIG         0.1800 
     19 CL19        8.2940    9.4900   26.2750 Cl        1 LIG        -0.1800 
     20 C12         6.2420    7.7410   25.6070 C.ar      1 LIG        -0.1150 
     21 O11         6.3780   11.3610   25.2170 O.3       1 LIG        -0.1850 
     22 C8          6.3470   12.1650   26.3470 C.ar      1 LIG        -0.1879 
     23 C7          6.1810   11.6570   27.6440 C.ar      1 LIG         0.0486 
     24 C6          6.1820   12.5630   28.7240 C.ar      1 LIG        -0.1736 
     25 C1          6.0270   12.1070   30.0290 C.ar      1 LIG        -0.1673 
     26 C9          6.5120   13.5400   26.1820 C.ar      1 LIG         0.4305 
     27 N10         6.5030   14.3810   27.2240 N.ar      1 LIG        -0.7311 
     28 C5          6.3420   13.9330   28.4850 C.ar      1 LIG         0.7341 
     29 C4          6.3440   14.8480   29.5370 C.ar      1 LIG        -0.4407 
     30 C3          6.1800   14.3840   30.8330 C.ar      1 LIG        -0.0433 
     31 C2          6.0270   13.0150   31.0820 C.ar      1 LIG        -0.2060 
     32 H30         2.7452    5.0074   29.9506 H         1 LIG         0.1150 
     33 H27         7.0137    4.7571   30.0739 H         1 LIG         0.1150 
     34 H26         7.0781    4.8770   27.6260 H         1 LIG         0.1150 
     35 H14         3.1804    8.2923   24.2559 H         1 LIG         0.1150 
     36 H12         6.8958    6.9735   25.9894 H         1 LIG         0.1150 
     37 H7          6.0667   10.6015   27.8213 H         1 LIG         0.1325 
     38 H1          5.9026   11.0526   30.2312 H         1 LIG         0.1528 
     39 H9          6.6489   13.9733   25.2022 H         1 LIG         0.0550 
     40 H4          6.4676   15.9040   29.3463 H         1 LIG         0.2022 
     41 H3          6.1762   15.0826   31.6568 H         1 LIG         0.1388 
     42 H2          5.9047   12.6615   32.0957 H         1 LIG         0.1554 
@<TRIPOS>BOND
     1    1    2 1    
     2    2    3 ar   
     3    2    8 ar   
     4    3    4 ar   
     5    3   32 1    
     6    4    5 1    
     7    4    6 ar   
     8    6    7 ar   
     9    6   33 1    
    10    7    8 ar   
    11    7   34 1    
    12    8    9 1    
    13    9   10 2    
    14    9   11 2    
    15    9   12 1    
    16   12   13 1    
    17   13   14 ar   
    18   13   20 ar   
    19   14   15 ar   
    20   14   35 1    
    21   15   16 1    
    22   15   17 ar   
    23   17   18 ar   
    24   17   21 1    
    25   18   19 1    
    26   18   20 ar   
    27   20   36 1    
    28   21   22 1    
    29   22   23 ar   
    30   22   26 ar   
    31   23   24 ar   
    32   23   37 1    
    33   24   25 ar   
    34   24   28 ar   
    35   25   31 ar   
    36   25   38 1    
    37   26   27 ar   
    38   26   39 1    
    39   27   28 ar   
    40   28   29 ar   
    41   29   30 ar   
    42   29   40 1    
    43   30   31 ar   
    44   30   41 1    
    45   31   42 1    
@<TRIPOS>SUBSTRUCTURE
     1 LIG         1 GROUP             0       ****    0 ROOT    
