@<TRIPOS>MOLECULE
:2y5h_ligand
60   64    1
SMALL
USER_CHARGES


@<TRIPOS>ATOM
      1 CL1        -0.6030    6.0040   27.7140 Cl        1 LIG        -0.1800 
      2 C25        -1.4130    7.5200   27.3830 C.2       1 LIG         0.1163 
      3 C24        -2.4440    8.0890   28.0850 C.2       1 LIG        -0.0738 
      4 C22        -2.8590    9.2980   27.4800 C.2       1 LIG        -0.0738 
      5 S1         -0.8570    8.4830   26.0440 S.3       1 LIG         0.0328 
      6 C20        -2.0920    9.6550   26.3770 C.2       1 LIG        -0.0637 
      7 C17        -2.3260   10.7580   25.4570 C.2       1 LIG         0.5540 
      8 N16        -1.7370   10.9830   24.3000 N.2       1 LIG        -0.5900 
      9 O10        -3.4170   11.5320   25.6860 O.3       1 LIG        -0.2570 
     10 C9         -3.4240   12.3800   24.5900 C.2       1 LIG        -0.1480 
     11 C4         -2.4210   12.0540   23.7710 C.2       1 LIG         0.1450 
     12 C1         -2.0780   12.6960   22.4510 C.3       1 LIG         0.3250 
     13 N3         -3.0750   13.7060   22.0080 N.4       1 LIG        -0.1000 
     14 C7         -2.7850   13.8590   20.5720 C.3       1 LIG         0.2100 
     15 C14        -1.5690   14.8000   20.5060 C.3       1 LIG        -0.1200 
     16 C15        -1.7360   15.6830   21.7540 C.3       1 LIG        -0.1200 
     17 C8         -2.8550   15.0490   22.6020 C.3       1 LIG         0.1500 
     18 C5         -2.5240   12.4580   20.0290 C.3       1 LIG        -0.0600 
     19 C2         -2.1300   11.6450   21.2910 C.3       1 LIG        -0.0600 
     20 C6         -3.2340   10.6000   21.3730 C.2       1 LIG         0.6305 
     21 O13        -3.3550    9.6930   22.1790 O.2       1 LIG        -0.5080 
     22 C11        -3.7950   11.8350   19.5110 C.2       1 LIG         0.6305 
     23 O18        -4.4580   12.1260   18.5150 O.2       1 LIG        -0.5080 
     24 N12        -4.1980   10.7940   20.3700 N.am      1 LIG        -0.3150 
     25 C19        -5.3870    9.9430   20.2030 C.3       1 LIG        -0.0500 
     26 C21        -5.1230    8.8510   19.1570 C.3       1 LIG        -0.1200 
     27 C23        -6.3750    7.9540   19.2090 C.3       1 LIG         0.0025 
     28 N29        -6.3660    6.8300   18.1920 N.4       1 LIG         0.5100 
     29 C32        -6.3170    7.3980   16.8020 C.3       1 LIG        -0.0575 
     30 C31        -7.6960    6.1270   18.3350 C.3       1 LIG        -0.0575 
     31 C30        -5.2350    5.8770   18.3810 C.3       1 LIG        -0.0575 
     32 H24        -2.9185    7.6714   28.9609 H         1 LIG         0.1211 
     33 H22        -3.6758    9.8757   27.8729 H         1 LIG         0.1211 
     34 H9         -4.2108   13.1195   24.5693 H         1 LIG         0.1810 
     35 H1         -1.0737   13.1179   22.5112 H         1 LIG         0.0600 
     36 HN3        -4.0138   13.3665   22.1632 H         1 LIG         0.2900 
     37 H7         -3.6362   14.3455   20.0899 H         1 LIG         0.0600 
     38 H141       -1.5562   15.3833   19.5847 H         1 LIG         0.0600 
     39 H142       -0.6271   14.2509   20.5538 H         1 LIG         0.0600 
     40 H151       -1.9810   16.7128   21.4918 H         1 LIG         0.0600 
     41 H152       -0.7932   15.6991   22.3000 H         1 LIG         0.0600 
     42 H81        -2.6686   14.9976   23.6667 H         1 LIG         0.0600 
     43 H82        -3.7726   15.6240   22.4719 H         1 LIG         0.0600 
     44 H5         -1.7555   12.4471   19.2555 H         1 LIG         0.0600 
     45 H2         -1.1741   11.1381   21.1636 H         1 LIG         0.0600 
     46 H191       -6.2296   10.5659   19.8985 H         1 LIG         0.0600 
     47 H192       -5.6698    9.5058   21.1627 H         1 LIG         0.0600 
     48 H211       -4.2201    8.3001   19.4185 H         1 LIG         0.0600 
     49 H212       -4.9689    9.3050   18.1787 H         1 LIG         0.0600 
     50 H231       -7.2656    8.5662   19.0536 H         1 LIG         0.0600 
     51 H232       -6.4705    7.5196   20.2056 H         1 LIG         0.0600 
     52 H321       -6.4966    6.6096   16.0780 H         1 LIG         0.0600 
     53 H322       -7.0729    8.1699   16.6515 H         1 LIG         0.0600 
     54 H323       -5.3403    7.8211   16.5662 H         1 LIG         0.0600 
     55 H311       -7.7774    5.2963   17.6324 H         1 LIG         0.0600 
     56 H312       -7.8099    5.7185   19.3400 H         1 LIG         0.0600 
     57 H313       -8.5280    6.8067   18.1471 H         1 LIG         0.0600 
     58 H301       -5.2237    5.1615   17.5672 H         1 LIG         0.0600 
     59 H302       -4.2679    6.3683   18.4067 H         1 LIG         0.0600 
     60 H303       -5.3689    5.3143   19.2922 H         1 LIG         0.0600 
@<TRIPOS>BOND
     1    1    2 1    
     2    2    3 2    
     3    2    5 1    
     4    3    4 1    
     5    3   32 1    
     6    4    6 2    
     7    4   33 1    
     8    5    6 1    
     9    6    7 1    
    10    7    8 2    
    11    7    9 1    
    12    8   11 1    
    13    9   10 1    
    14   10   11 2    
    15   10   34 1    
    16   11   12 1    
    17   12   13 1    
    18   12   19 1    
    19   12   35 1    
    20   13   14 1    
    21   13   17 1    
    22   13   36 1    
    23   14   15 1    
    24   14   18 1    
    25   14   37 1    
    26   15   16 1    
    27   15   38 1    
    28   15   39 1    
    29   16   17 1    
    30   16   40 1    
    31   16   41 1    
    32   17   42 1    
    33   17   43 1    
    34   18   19 1    
    35   18   22 1    
    36   18   44 1    
    37   19   20 1    
    38   19   45 1    
    39   20   21 2    
    40   20   24 am   BACKBONE|DICT|INTERRES
    41   22   23 2    
    42   22   24 am   BACKBONE|DICT|INTERRES
    43   24   25 1    
    44   25   26 1    
    45   25   46 1    
    46   25   47 1    
    47   26   27 1    
    48   26   48 1    
    49   26   49 1    
    50   27   28 1    
    51   27   50 1    
    52   27   51 1    
    53   28   29 1    
    54   28   30 1    
    55   28   31 1    
    56   29   52 1    
    57   29   53 1    
    58   29   54 1    
    59   30   55 1    
    60   30   56 1    
    61   30   57 1    
    62   31   58 1    
    63   31   59 1    
    64   31   60 1    
@<TRIPOS>SUBSTRUCTURE
     1 LIG         1 GROUP             0       ****    0 ROOT    
