@<TRIPOS>MOLECULE
:1q8u_ligand
44   46    1
SMALL
USER_CHARGES


@<TRIPOS>ATOM
      1 O1          9.0020   11.3030    4.8480 O.2       1 LIG        -0.4680 
      2 S5          8.8080    9.9310    4.3060 S.o2      1 LIG         0.9819 
      3 O2          8.5320    8.8530    5.2640 O.2       1 LIG        -0.4680 
      4 N21        10.1290    9.3450    3.3860 N.pl3     1 LIG        -0.5376 
      5 C22        10.5140    7.8890    3.6060 C.3       1 LIG         0.1321 
      6 C2M         9.5510    6.9010    2.9710 C.3       1 LIG        -0.1433 
      7 C23        11.9540    7.5010    3.2490 C.3       1 LIG         0.1700 
      8 N24        12.8840    8.2120    4.2120 N.4       1 LIG        -0.2000 
      9 C25        13.3440    9.5160    3.5810 C.3       1 LIG         0.1700 
     10 C26        12.2700   10.6190    3.5870 C.3       1 LIG        -0.0833 
     11 C27        11.0890   10.2490    2.6990 C.3       1 LIG         0.0588 
     12 C5          7.3940    9.9380    3.2180 C.ar      1 LIG        -0.2361 
     13 C10         5.9780    9.8950    3.6190 C.ar      1 LIG         0.6486 
     14 C4          5.3680    9.9110    4.9390 C.ar      1 LIG        -0.6271 
     15 CM          6.0680   10.0340    6.2580 C.3       1 LIG        -0.0650 
     16 C9          5.0230    9.8180    2.5610 C.ar      1 LIG        -0.2505 
     17 C8          5.4370    9.7960    1.2000 C.ar      1 LIG        -0.1818 
     18 C7          6.7620    9.8350    0.8680 C.ar      1 LIG        -0.1533 
     19 C6          7.7460    9.8780    1.8860 C.ar      1 LIG        -0.0460 
     20 C1          3.6240    9.7490    2.8360 C.ar      1 LIG         0.3967 
     21 N2          3.1610    9.7220    4.0620 N.ar      1 LIG        -0.6841 
     22 C3          4.0030    9.8280    5.1100 C.ar      1 LIG         0.4845 
     23 H22        10.4630    7.6946    4.6768 H         1 LIG         0.0733 
     24 H2M1        9.6589    5.8975    3.3752 H         1 LIG         0.0600 
     25 H2M2        8.5120    7.1952    3.1113 H         1 LIG         0.0600 
     26 H2M3        9.7355    6.8541    1.8987 H         1 LIG         0.0600 
     27 H231       12.1965    7.6874    2.2020 H         1 LIG         0.0600 
     28 H232       12.1104    6.4383    3.3966 H         1 LIG         0.0600 
     29 H241       13.6939    7.6262    4.3552 H         1 LIG         0.3100 
     30 H242       12.4245    8.3663    5.0996 H         1 LIG         0.3100 
     31 H251       13.7303    9.3452    2.5751 H         1 LIG         0.0600 
     32 H252       14.1923    9.8529    4.1742 H         1 LIG         0.0600 
     33 H261       12.7148   11.5412    3.2123 H         1 LIG         0.0600 
     34 H262       11.9399   10.8286    4.6035 H         1 LIG         0.0600 
     35 H271       10.5636   11.1617    2.4403 H         1 LIG         0.0733 
     36 H272       11.4102    9.8158    1.7513 H         1 LIG         0.0733 
     37 HM1         5.4143   10.3259    7.0794 H         1 LIG         0.0600 
     38 HM2         6.5076    9.0692    6.4560 H         1 LIG         0.0600 
     39 HM3         6.8555   10.7821    6.2060 H         1 LIG         0.0600 
     40 H8          4.6981    9.7419    0.4132 H         1 LIG         0.1598 
     41 H7          7.0581    9.8128   -0.1707 H         1 LIG         0.1414 
     42 H6          8.7611    9.9032    1.5338 H         1 LIG         0.1382 
     43 H1          2.9144    9.6580    2.0318 H         1 LIG         0.0566 
     44 H3          3.5374    9.8220    6.0852 H         1 LIG         0.0456 
@<TRIPOS>BOND
     1    1    2 2    
     2    2    3 2    
     3    2    4 1    
     4    2   12 1    
     5    4    5 1    
     6    4   11 1    
     7    5    6 1    
     8    5    7 1    
     9    5   23 1    
    10    6   24 1    
    11    6   25 1    
    12    6   26 1    
    13    7    8 1    
    14    7   27 1    
    15    7   28 1    
    16    8    9 1    
    17    8   29 1    
    18    8   30 1    
    19    9   10 1    
    20    9   31 1    
    21    9   32 1    
    22   10   11 1    
    23   10   33 1    
    24   10   34 1    
    25   11   35 1    
    26   11   36 1    
    27   12   13 ar   
    28   12   19 ar   
    29   13   14 ar   
    30   13   16 ar   
    31   14   15 1    
    32   14   22 ar   
    33   15   37 1    
    34   15   38 1    
    35   15   39 1    
    36   16   17 ar   
    37   16   20 ar   
    38   17   18 ar   
    39   17   40 1    
    40   18   19 ar   
    41   18   41 1    
    42   19   42 1    
    43   20   21 ar   
    44   20   43 1    
    45   21   22 ar   
    46   22   44 1    
@<TRIPOS>SUBSTRUCTURE
     1 LIG         1 GROUP             0       ****    0 ROOT    
