@<TRIPOS>MOLECULE
:3utu_ligand
82   85    1
SMALL
USER_CHARGES


@<TRIPOS>ATOM
      1 S8         18.0850  -16.3870   24.9640 S.o2      1 LIG         0.8327 
      2 CL         20.8370  -12.1460   26.6850 Cl        1 LIG        -0.1800 
      3 C35        19.5510  -15.4720   24.9520 C.ar      1 LIG         0.1567 
      4 C10        23.9730  -13.3580   24.1640 C.3       1 LIG         0.1100 
      5 O9         22.9250  -13.0920   24.9790 O.3       1 LIG        -0.2850 
      6 C5         21.8130  -13.8370   24.8930 C.ar      1 LIG         0.0850 
      7 O1         18.4230  -17.3820   24.3800 O.2       1 LIG        -0.4680 
      8 O10        17.6440  -16.3220   26.0080 O.2       1 LIG        -0.4680 
      9 C7         20.5770  -15.7130   24.0780 C.ar      1 LIG        -0.1150 
     10 C3         19.6800  -14.3240   25.7610 C.ar      1 LIG        -0.1150 
     11 C6         21.7330  -14.9280   24.0610 C.ar      1 LIG        -0.1150 
     12 C4         20.7550  -13.5930   25.6870 C.ar      1 LIG         0.1800 
     13 C13        17.6640  -13.9570   22.3680 C.2       1 LIG         0.5000 
     14 N11        17.1750  -15.7780   23.8350 N.pl3     1 LIG        -0.6527 
     15 O14        16.7870  -13.3640   22.8960 O.2       1 LIG        -0.5000 
     16 C15        14.7330  -19.3660   22.1860 C.3       1 LIG         0.1950 
     17 C31        14.2280  -19.6180   23.4990 C.ar      1 LIG        -0.1150 
     18 C32        13.0220  -20.1390   23.6580 C.ar      1 LIG        -0.1150 
     19 C33        12.5970  -20.3510   24.9050 C.ar      1 LIG        -0.1150 
     20 C44        13.3220  -20.1100   26.0220 C.ar      1 LIG         0.0350 
     21 C8         14.5730  -19.5710   25.8720 C.ar      1 LIG        -0.1150 
     22 C9         14.9450  -19.4300   24.6230 C.ar      1 LIG        -0.1150 
     23 C40        12.8160  -20.3110   27.1020 C.1       1 LIG         0.3950 
     24 N63        12.3340  -20.3620   28.0940 N.1       1 LIG        -0.4300 
     25 C45        17.6950  -15.5130   22.6230 C.3       1 LIG         0.1321 
     26 C12        16.8720  -16.1360   21.3880 C.3       1 LIG        -0.0833 
     27 C46        16.5250  -17.6600   21.5310 C.2       1 LIG         0.5000 
     28 O22        17.3940  -18.3810   21.3740 O.2       1 LIG        -0.5000 
     29 N14        15.3170  -18.0060   21.9460 N.am      1 LIG        -0.5000 
     30 N15        18.5770  -13.4810   21.6180 N.am      1 LIG        -0.1400 
     31 C16        18.4480  -12.1770   21.1290 C.3       1 LIG         0.0100 
     32 C17        17.1200  -12.1720   20.2810 C.2       1 LIG         0.5000 
     33 O18        16.8440  -12.9880   19.4770 O.2       1 LIG        -0.5000 
     34 C34        19.5280  -12.0160   20.0730 C.3       1 LIG        -0.1200 
     35 C1         20.3560  -13.2590   20.0790 C.3       1 LIG        -0.1200 
     36 C2         19.6190  -14.2220   20.9120 C.3       1 LIG        -0.0500 
     37 N19        16.3280  -11.0690   20.4540 N.am      1 LIG        -0.5000 
     38 C20        15.0790  -10.8690   19.7970 C.3       1 LIG         0.1950 
     39 C21        14.0190  -10.8830   20.8490 C.ar      1 LIG         0.0170 
     40 C26        13.4110   -9.7610   21.3260 C.ar      1 LIG        -0.1060 
     41 C25        12.5010   -9.7550   22.2480 C.ar      1 LIG        -0.0900 
     42 C24        12.0730  -10.8450   22.8530 C.ar      1 LIG        -0.1190 
     43 C27        11.0670  -10.8660   23.8680 C.2       1 LIG         0.8270 
     44 N29        10.8020   -9.8930   24.4720 N.pl3     1 LIG        -0.8850 
     45 N28        10.3980  -11.9280   24.1010 N.pl3     1 LIG        -0.8850 
     46 C23        12.6730  -11.9760   22.4630 C.ar      1 LIG        -0.0900 
     47 C22        13.5990  -11.9520   21.4950 C.ar      1 LIG        -0.1060 
     48 H101       24.7549  -12.6191   24.3408 H         1 LIG         0.0300 
     49 H102       24.4058  -14.3344   24.3844 H         1 LIG         0.0300 
     50 H103       23.7060  -13.2989   23.1084 H         1 LIG         0.0300 
     51 H7         20.5424  -16.5640   23.4137 H         1 LIG         0.1150 
     52 H3         18.8839  -14.0453   26.4349 H         1 LIG         0.1150 
     53 H6         22.5246  -15.2205   23.3890 H         1 LIG         0.1150 
     54 HN11       16.5871  -15.0096   24.1623 H         1 LIG         0.3572 
     55 H151       13.9482  -19.5039   21.4404 H         1 LIG         0.0600 
     56 H152       15.4828  -20.1281   21.9677 H         1 LIG         0.0600 
     57 H32        12.3738  -20.3506   22.8192 H         1 LIG         0.1150 
     58 H33        11.6105  -20.7205   25.0381 H         1 LIG         0.1150 
     59 H8         15.2262  -19.3309   26.6999 H         1 LIG         0.1150 
     60 H9         15.9453  -19.0427   24.4862 H         1 LIG         0.1150 
     61 H45        18.6837  -15.9295   22.4994 H         1 LIG         0.0733 
     62 H121       17.3859  -16.0117   20.4400 H         1 LIG         0.0600 
     63 H122       15.9295  -15.5986   21.2687 H         1 LIG         0.0600 
     64 HN14       14.6672  -17.2411   22.0797 H         1 LIG         0.3000 
     65 H16        18.4677  -11.4097   21.9016 H         1 LIG         0.0600 
     66 H341       20.1556  -11.1479   20.2534 H         1 LIG         0.0600 
     67 H342       19.1602  -11.8573   19.0561 H         1 LIG         0.0600 
     68 H11        21.3121  -13.0346   20.5523 H         1 LIG         0.0600 
     69 H12        20.5718  -13.6316   19.0791 H         1 LIG         0.0600 
     70 H21        19.2086  -15.0051   20.2917 H         1 LIG         0.0600 
     71 H22        20.3129  -14.6934   21.6044 H         1 LIG         0.0600 
     72 HN19       16.6278  -10.3572   21.1089 H         1 LIG         0.3000 
     73 H201       14.8729  -11.3875   18.8593 H         1 LIG         0.0600 
     74 H202       15.1575   -9.8271   19.7048 H         1 LIG         0.0600 
     75 H26        13.6857   -8.8100   20.8989 H         1 LIG         0.1410 
     76 H25        12.0821   -8.7945   22.5104 H         1 LIG         0.1290 
     77 H291        9.9899   -9.8743   25.0802 H         1 LIG         0.4455 
     78 H292       11.3467   -9.0544   24.3396 H         1 LIG         0.4455 
     79 H281        9.6161  -11.9038   24.7490 H         1 LIG         0.4455 
     80 H282       10.6211  -12.7997   23.6380 H         1 LIG         0.4455 
     81 H23        12.4266  -12.9314   22.9044 H         1 LIG         0.1290 
     82 H22        14.0415  -12.8989   21.2187 H         1 LIG         0.1410 
@<TRIPOS>BOND
     1    1    3 1    
     2    1    7 2    
     3    1    8 2    
     4    1   14 1    
     5    2   12 1    
     6    3    9 ar   
     7    3   10 ar   
     8    4    5 1    
     9    4   48 1    
    10    4   49 1    
    11    4   50 1    
    12    5    6 1    
    13    6   11 ar   
    14    6   12 ar   
    15    9   11 ar   
    16    9   51 1    
    17   10   12 ar   
    18   10   52 1    
    19   11   53 1    
    20   13   15 2    
    21   13   25 1    
    22   13   30 am   BACKBONE|DICT|INTERRES
    23   14   25 1    
    24   14   54 1    
    25   16   17 1    
    26   16   29 1    
    27   16   55 1    
    28   16   56 1    
    29   17   18 ar   
    30   17   22 ar   
    31   18   19 ar   
    32   18   57 1    
    33   19   20 ar   
    34   19   58 1    
    35   20   21 ar   
    36   20   23 1    
    37   21   22 ar   
    38   21   59 1    
    39   22   60 1    
    40   23   24 3    
    41   25   26 1    
    42   25   61 1    
    43   26   27 1    
    44   26   62 1    
    45   26   63 1    
    46   27   28 2    
    47   27   29 am   BACKBONE|DICT|INTERRES
    48   29   64 1    
    49   30   31 1    
    50   30   36 1    
    51   31   32 1    
    52   31   34 1    
    53   31   65 1    
    54   32   33 2    
    55   32   37 am   BACKBONE|DICT|INTERRES
    56   34   35 1    
    57   34   66 1    
    58   34   67 1    
    59   35   36 1    
    60   35   68 1    
    61   35   69 1    
    62   36   70 1    
    63   36   71 1    
    64   37   38 1    
    65   37   72 1    
    66   38   39 1    
    67   38   73 1    
    68   38   74 1    
    69   39   40 ar   
    70   39   47 ar   
    71   40   41 ar   
    72   40   75 1    
    73   41   42 ar   
    74   41   76 1    
    75   42   43 1    
    76   42   46 ar   
    77   43   44 2    
    78   43   45 1    
    79   44   77 1    
    80   44   78 1    
    81   45   79 1    
    82   45   80 1    
    83   46   47 ar   
    84   46   81 1    
    85   47   82 1    
@<TRIPOS>SUBSTRUCTURE
     1 LIG         1 GROUP             0       ****    0 ROOT    
