@<TRIPOS>MOLECULE
:1bzc_ligand
43   44    1
SMALL
USER_CHARGES


@<TRIPOS>ATOM
      1 P         -20.5280   58.4430   12.0690 P.3       1 LIG         1.4499 
      2 O1        -20.4410   56.9790   11.4600 O.co2     1 LIG        -1.1200 
      3 O2        -21.3340   59.3230   11.1980 O.co2     1 LIG        -1.1200 
      4 O3        -19.0690   59.0410   12.2460 O.co2     1 LIG        -1.1200 
      5 C1        -21.3330   58.3720   13.6690 C.3       1 LIG         0.3100 
      6 C2        -20.8740   56.1310   14.8470 C.ar      1 LIG        -0.1150 
      7 C3        -20.6170   57.5140   14.7150 C.ar      1 LIG        -0.1600 
      8 C4        -19.7250   58.1450   15.6010 C.ar      1 LIG        -0.1150 
      9 C5        -19.1000   57.4250   16.6180 C.ar      1 LIG        -0.1150 
     10 C6        -18.7540   55.3570   17.8170 C.ar      1 LIG        -0.1150 
     11 C7        -18.9980   53.9910   18.0000 C.ar      1 LIG        -0.1150 
     12 C8        -19.8620   53.3130   17.1080 C.ar      1 LIG        -0.1150 
     13 C9        -20.4890   54.0160   16.0500 C.ar      1 LIG        -0.1150 
     14 C10       -20.2440   55.3950   15.8790 C.ar      1 LIG         0.0000 
     15 C11       -19.3650   56.0590   16.7660 C.ar      1 LIG         0.0000 
     16 C12       -18.3240   53.2680   19.1560 C.2       1 LIG         0.6150 
     17 O4        -17.6080   53.9250   19.9000 O.2       1 LIG        -0.5000 
     18 N1        -18.5390   51.8320   19.3520 N.am      1 LIG        -0.5000 
     19 C13       -17.8240   51.2530   20.5000 C.3       1 LIG         0.1400 
     20 C14       -16.3230   51.4180   20.5180 C.2       1 LIG         0.5000 
     21 N2        -15.7240   52.0710   21.6630 N.am      1 LIG        -0.7600 
     22 O5        -15.6210   50.9870   19.6170 O.2       1 LIG        -0.5000 
     23 C15       -18.1420   49.7480   20.6410 C.3       1 LIG        -0.1200 
     24 C16       -19.6280   49.5050   20.9440 C.3       1 LIG        -0.2200 
     25 C17       -19.8660   48.0310   21.0820 C.2       1 LIG         0.7000 
     26 O6        -21.1390   47.6770   21.2330 O.co2     1 LIG        -0.8000 
     27 O7        -18.9550   47.2040   21.0680 O.co2     1 LIG        -0.8000 
     28 F1        -21.4420   59.6270   14.1640 F         1 LIG        -0.1200 
     29 F2        -22.5530   57.8710   13.4660 F         1 LIG        -0.1200 
     30 H2        -21.5576   55.6398   14.1695 H         1 LIG         0.1150 
     31 H4        -19.5133   59.1996   15.5059 H         1 LIG         0.1150 
     32 H5        -18.4183   57.9167   17.2903 H         1 LIG         0.1150 
     33 H6        -18.0916   55.8897   18.4841 H         1 LIG         0.1150 
     34 H8        -20.0735   52.2629   17.2277 H         1 LIG         0.1150 
     35 H9        -21.1576   53.4923   15.3822 H         1 LIG         0.1150 
     36 HN1       -19.0812   51.2551   18.7181 H         1 LIG         0.3000 
     37 H13       -18.2120   51.7472   21.3930 H         1 LIG         0.0600 
     38 H21       -14.7234   52.1976   21.6973 H         1 LIG         0.3800 
     39 H22       -16.3123   52.4362   22.3979 H         1 LIG         0.3800 
     40 H151      -17.5354   49.3235   21.4430 H         1 LIG         0.0600 
     41 H152      -17.8559   49.2301   19.7228 H         1 LIG         0.0600 
     42 H161      -20.2689   49.8982   20.1558 H         1 LIG         0.0600 
     43 H162      -19.9172   49.9974   21.8726 H         1 LIG         0.0600 
@<TRIPOS>BOND
     1    1    5 1    
     2    1    4 1    
     3    1    3 1    
     4    1    2 2    
     5    5    7 1    
     6    5   29 1    
     7    5   28 1    
     8    6    7 ar   
     9    6   14 ar   
    10    6   30 1    
    11    7    8 ar   
    12    8    9 ar   
    13    8   31 1    
    14    9   15 ar   
    15    9   32 1    
    16   10   15 ar   
    17   10   11 ar   
    18   10   33 1    
    19   11   16 1    
    20   11   12 ar   
    21   12   13 ar   
    22   12   34 1    
    23   13   14 ar   
    24   13   35 1    
    25   14   15 ar   
    26   16   18 am   BACKBONE|DICT|INTERRES
    27   16   17 2    
    28   18   19 1    
    29   18   36 1    
    30   19   23 1    
    31   19   20 1    
    32   19   37 1    
    33   20   22 2    
    34   20   21 am   BACKBONE|DICT|INTERRES
    35   21   38 1    
    36   21   39 1    
    37   23   24 1    
    38   23   40 1    
    39   23   41 1    
    40   24   25 1    
    41   24   42 1    
    42   24   43 1    
    43   25   27 1    
    44   25   26 2    
@<TRIPOS>SUBSTRUCTURE
     1 LIG         1 GROUP             0       ****    0 ROOT    
