@<TRIPOS>MOLECULE
:3fv1_ligand
44   45    1
SMALL
USER_CHARGES


@<TRIPOS>ATOM
      1 CAA        -9.0150   11.3910   19.7050 C.3       1 LIG         0.1100 
      2 NH         -9.9920   12.4710   19.8030 N.4       1 LIG        -0.2000 
      3 CAH       -10.0650   13.2430   21.0470 C.3       1 LIG         0.0056 
      4 CAG       -11.2010   14.2510   20.9770 C.3       1 LIG         0.2050 
      5 OAC       -11.1390   14.9900   19.7440 O.3       1 LIG        -0.6830 
      6 CAP       -11.1220   15.2350   22.1390 C.3       1 LIG         0.1400 
      7 OAQ        -9.9040   15.9730   22.0770 O.3       1 LIG        -0.4000 
      8 CAR        -8.7580   15.1170   22.2720 C.3       1 LIG         0.1700 
      9 CAS        -7.5280   15.8850   21.8370 C.3       1 LIG        -0.1200 
     10 CAI        -8.7380   13.9400   21.3060 C.3       1 LIG         0.3944 
     11 OAJ        -8.2900   14.5050   20.0750 O.3       1 LIG        -0.4000 
     12 CAK        -7.4600   15.6540   20.3290 C.3       1 LIG         0.2000 
     13 CAE        -8.0510   16.8610   19.6090 C.2       1 LIG         0.6000 
     14 OAB        -9.2220   16.7820   19.1390 O.co2     1 LIG        -0.8000 
     15 OAF        -7.3530   17.8920   19.4920 O.co2     1 LIG        -0.8000 
     16 CB         -6.0250   15.3570   19.9050 C.3       1 LIG        -0.1200 
     17 CA         -5.7980   15.2430   18.3960 C.3       1 LIG         0.2500 
     18 C          -4.3360   15.4470   18.1430 C.3       1 LIG         0.4700 
     19 OXT        -3.6970   14.5950   17.4910 O.3       1 LIG        -0.6830 
     20 O          -3.8250   16.4790   18.6080 O.3       1 LIG        -0.6830 
     21 N          -6.2230   13.9540   17.8620 N.4       1 LIG        -0.3000 
     22 HAA1       -9.1324   10.8604   18.7648 H         1 LIG         0.0600 
     23 HAA2       -7.9892   11.7542   19.7665 H         1 LIG         0.0600 
     24 HAA3       -9.1904   10.6693   20.4983 H         1 LIG         0.0600 
     25 HH1       -10.9047   12.0525   19.6580 H         1 LIG         0.3100 
     26 HH2        -9.8179   13.1196   19.0437 H         1 LIG         0.3100 
     27 HAH       -10.2716   12.5619   21.8723 H         1 LIG         0.0600 
     28 HAG       -12.1324   13.6911   21.0055 H         1 LIG         0.0600 
     29 HOAC      -10.3578   15.5359   19.7351 H         1 LIG         0.4180 
     30 HAP1      -11.2606   14.7607   23.0966 H         1 LIG         0.0300 
     31 HAP2      -11.9306   15.9617   22.0620 H         1 LIG         0.0300 
     32 HAR        -8.7045   14.7954   23.3129 H         1 LIG         0.0300 
     33 HAS1       -6.6595   15.4658   22.3389 H         1 LIG         0.0600 
     34 HAS2       -7.5536   16.9352   22.1125 H         1 LIG         0.0600 
     35 HAI        -7.9825   13.2241   21.6284 H         1 LIG         0.0300 
     36 HB1        -5.7275   14.4254   20.3666 H         1 LIG         0.0600 
     37 HB2        -5.4106   16.1309   20.3641 H         1 LIG         0.0600 
     38 HA         -6.3802   15.9893   17.8732 H         1 LIG         0.0600 
     39 HXT        -4.4310   15.9337   17.1847 H         1 LIG         0.0600 
     40 HOXT       -3.4970   13.8715   18.0678 H         1 LIG         0.4180 
     41 HO         -3.8445   16.4100   19.5520 H         1 LIG         0.4180 
     42 H1         -6.0153   13.9333   16.8712 H         1 LIG         0.3300 
     43 H2         -5.7463   13.1874   18.3166 H         1 LIG         0.3300 
     44 H3         -7.2262   13.8538   17.9716 H         1 LIG         0.3300 
@<TRIPOS>BOND
     1    1    2 1    
     2    1   22 1    
     3    1   23 1    
     4    1   24 1    
     5    2    3 1    
     6    2   25 1    
     7    2   26 1    
     8    3    4 1    
     9    3   10 1    
    10    3   27 1    
    11    4    5 1    
    12    4    6 1    
    13    4   28 1    
    14    5   29 1    
    15    6    7 1    
    16    6   30 1    
    17    6   31 1    
    18    7    8 1    
    19    8    9 1    
    20    8   10 1    
    21    8   32 1    
    22    9   12 1    
    23    9   33 1    
    24    9   34 1    
    25   10   11 1    
    26   10   35 1    
    27   11   12 1    
    28   12   13 1    
    29   12   16 1    
    30   13   14 2    
    31   13   15 1    
    32   16   17 1    
    33   16   36 1    
    34   16   37 1    
    35   17   18 1    
    36   17   21 1    
    37   17   38 1    
    38   18   19 1    
    39   18   20 1    
    40   18   39 1    
    41   19   40 1    
    42   20   41 1    
    43   21   42 1    
    44   21   43 1    
    45   21   44 1    
@<TRIPOS>SUBSTRUCTURE
     1 LIG         1 GROUP             0       ****    0 ROOT    
