@<TRIPOS>MOLECULE
:3b27_ligand
25   26    1
SMALL
USER_CHARGES


@<TRIPOS>ATOM
      1 C1         13.6390    4.6690   12.6910 C.3       1 LIG        -0.0125 
      2 S2         12.1830    5.4520   11.9770 S.3       1 LIG        -0.3200 
      3 C3         10.8620    4.5170   12.6220 C.ar      1 LIG         1.0787 
      4 N4         11.0520    3.2590   13.0550 N.ar      1 LIG        -0.9262 
      5 N5          9.6570    5.0710   12.5410 N.ar      1 LIG        -0.9262 
      6 C6          8.5880    4.3960   12.9960 C.ar      1 LIG         1.1262 
      7 N7          7.3810    4.9180   12.9250 N.pl3     1 LIG        -0.9200 
      8 N10         8.7510    3.1240   13.4250 N.ar      1 LIG        -0.9262 
      9 C11         9.9710    2.5570   13.4650 C.ar      1 LIG         0.9262 
     10 C12        10.0890    1.2360   13.9260 C.ar      1 LIG         0.0000 
     11 C13        10.9340    0.9760   15.0050 C.ar      1 LIG        -0.1150 
     12 C14        11.0630   -0.3510   15.4580 C.ar      1 LIG        -0.1150 
     13 C15        10.3470   -1.3750   14.8200 C.ar      1 LIG        -0.1150 
     14 C16         9.5130   -1.1260   13.7380 C.ar      1 LIG        -0.1150 
     15 C17         9.3780    0.1960   13.2900 C.ar      1 LIG         0.1800 
     16 CL18        8.3840    0.4520   11.8910 Cl        1 LIG        -0.1800 
     17 H11        14.5408    5.1682   12.3375 H         1 LIG         0.0600 
     18 H12        13.6078    4.7340   13.7785 H         1 LIG         0.0600 
     19 H13        13.6970    3.6185   12.4071 H         1 LIG         0.0600 
     20 H71         6.5813    4.3872   13.2341 H         1 LIG         0.3600 
     21 H72         7.2334    5.8662   12.5907 H         1 LIG         0.3600 
     22 H13        11.4810    1.7732   15.4875 H         1 LIG         0.1150 
     23 H14        11.7096   -0.5792   16.2924 H         1 LIG         0.1150 
     24 H15        10.4565   -2.3906   15.1713 H         1 LIG         0.1150 
     25 H16         8.9898   -1.9319   13.2467 H         1 LIG         0.1150 
@<TRIPOS>BOND
     1    1    2 1    
     2    1   17 1    
     3    1   18 1    
     4    1   19 1    
     5    2    3 1    
     6    3    4 ar   
     7    3    5 ar   
     8    4    9 ar   
     9    5    6 ar   
    10    6    7 1    
    11    6    8 ar   
    12    7   20 1    
    13    7   21 1    
    14    8    9 ar   
    15    9   10 1    
    16   10   11 ar   
    17   10   15 ar   
    18   11   12 ar   
    19   11   22 1    
    20   12   13 ar   
    21   12   23 1    
    22   13   14 ar   
    23   13   24 1    
    24   14   15 ar   
    25   14   25 1    
    26   15   16 1    
@<TRIPOS>SUBSTRUCTURE
     1 LIG         1 GROUP             0       ****    0 ROOT    
