@<TRIPOS>MOLECULE
:4agq_ligand
63   65    1
SMALL
USER_CHARGES


@<TRIPOS>ATOM
      1 C          90.8850   91.8020  -50.1560 C.ar      1 LIG        -0.1150 
      2 N          91.0760   89.9140  -48.5970 N.pl3     1 LIG        -0.7800 
      3 C01        91.5330   93.4550  -45.3070 C.ar      1 LIG         0.1164 
      4 C1         90.7800   95.7390  -44.9640 C.ar      1 LIG        -0.1150 
      5 N1         90.6830   98.2530  -44.8460 N.3       1 LIG        -0.6300 
      6 O1         90.9230   96.7270  -42.7950 O.3       1 LIG        -0.5850 
      7 C02        91.8810   93.3660  -43.9520 C.ar      1 LIG        -0.1150 
      8 C2         90.1810   96.9990  -45.5280 C.3       1 LIG         0.2050 
      9 N2         91.9400  102.3560  -44.2570 N.4       1 LIG        -0.1000 
     10 C03        89.6400   99.3320  -44.9180 C.3       1 LIG         0.0900 
     11 C3         90.9950   94.6440  -45.8120 C.ar      1 LIG        -0.1150 
     12 C04        91.7590   92.3600  -46.1960 C.1       1 LIG        -0.1164 
     13 C4         91.6780   94.4580  -43.0960 C.ar      1 LIG         0.1000 
     14 C05        91.9620   91.4750  -46.9830 C.1       1 LIG         0.0000 
     15 C06        92.2560   90.3680  -47.9040 C.3       1 LIG         0.0800 
     16 C07        90.3620   90.6810  -49.5060 C.ar      1 LIG         0.2000 
     17 C7         91.1240   95.6340  -43.6080 C.ar      1 LIG         0.1500 
     18 C08        89.0360   90.3300  -49.7960 C.ar      1 LIG        -0.1150 
     19 C8         90.1590  100.5540  -44.1790 C.3       1 LIG        -0.1200 
     20 C09        88.2670   91.0680  -50.7030 C.ar      1 LIG        -0.1150 
     21 C10        91.4680  101.0070  -44.8210 C.3       1 LIG         0.2100 
     22 C12        90.0990  103.9410  -44.8990 C.3       1 LIG        -0.1800 
     23 C13        93.0260  102.2730  -43.2010 C.3       1 LIG         0.1500 
     24 C14        93.6440  103.6430  -42.9800 C.3       1 LIG        -0.1800 
     25 C15        92.5330   99.9110  -44.6780 C.3       1 LIG        -0.1200 
     26 C16        92.0460   98.6390  -45.3540 C.3       1 LIG         0.0900 
     27 C17        88.8110   92.1780  -51.3390 C.ar      1 LIG        -0.1150 
     28 C18        90.1280   92.5440  -51.0680 C.ar      1 LIG        -0.1150 
     29 I2         92.1690   94.3450  -41.0290 I         1 LIG        -0.1000 
     30 C11        90.7760  103.2160  -43.7470 C.3       1 LIG         0.1500 
     31 HXT        91.8944   92.1139  -49.9638 H         1 LIG         0.1150 
     32 HN         90.5561   89.1915  -48.1185 H         1 LIG         0.3800 
     33 HO1        90.6926   97.4867  -43.3186 H         1 LIG         0.4350 
     34 H02        92.3002   92.4554  -43.5527 H         1 LIG         0.1150 
     35 H21        89.1054   96.9164  -45.3683 H         1 LIG         0.0600 
     36 H22        90.3230   97.0623  -46.6046 H         1 LIG         0.0600 
     37 HN2        92.3666  102.8511  -45.0272 H         1 LIG         0.2900 
     38 H031       88.7123   98.9832  -44.4623 H         1 LIG         0.0600 
     39 H032       89.4255   99.5703  -45.9609 H         1 LIG         0.0600 
     40 H3         90.7112   94.7180  -46.8508 H         1 LIG         0.1150 
     41 H061       93.0192   90.6825  -48.6121 H         1 LIG         0.0600 
     42 H062       92.6800   89.5464  -47.3287 H         1 LIG         0.0600 
     43 H08        88.5915   89.4725  -49.3119 H         1 LIG         0.1150 
     44 H81        90.2814  100.3450  -43.1146 H         1 LIG         0.0600 
     45 H82        89.3447  101.2656  -44.2982 H         1 LIG         0.0600 
     46 H09        87.2476   90.7754  -50.9074 H         1 LIG         0.1150 
     47 H10        91.2831  101.1813  -45.8823 H         1 LIG         0.0600 
     48 H121       89.3146  104.6032  -44.5315 H         1 LIG         0.0600 
     49 H122       90.8118  104.5505  -45.4554 H         1 LIG         0.0600 
     50 H123       89.6386  103.2444  -45.5997 H         1 LIG         0.0600 
     51 H131       93.8508  101.6414  -43.5139 H         1 LIG         0.0600 
     52 H132       92.6375  101.8557  -42.2708 H         1 LIG         0.0600 
     53 H141       94.6114  103.5330  -42.4884 H         1 LIG         0.0600 
     54 H142       93.8244  104.1632  -43.9215 H         1 LIG         0.0600 
     55 H143       93.0560  104.2879  -42.3288 H         1 LIG         0.0600 
     56 H151       92.7353   99.6820  -43.6308 H         1 LIG         0.0600 
     57 H152       93.4678  100.2106  -45.1469 H         1 LIG         0.0600 
     58 H161       91.9832   98.8130  -46.4274 H         1 LIG         0.0600 
     59 H162       92.7483   97.8200  -45.2080 H         1 LIG         0.0600 
     60 H17        88.2196   92.7494  -52.0392 H         1 LIG         0.1150 
     61 H18        90.5634   93.4028  -51.5572 H         1 LIG         0.1150 
     62 H111       91.1503  104.0312  -43.1371 H         1 LIG         0.0600 
     63 H112       90.0920  102.7355  -43.0501 H         1 LIG         0.0600 
@<TRIPOS>BOND
     1    1   16 ar   
     2    1   28 ar   
     3    1   31 1    
     4    2   15 1    
     5    2   16 1    
     6    2   32 1    
     7    3    7 ar   
     8    3   11 ar   
     9    3   12 1    
    10    4    8 1    
    11    4   11 ar   
    12    4   17 ar   
    13    5    8 1    
    14    5   10 1    
    15    5   26 1    
    16    6   17 1    
    17    6   33 1    
    18    7   13 ar   
    19    7   34 1    
    20    8   35 1    
    21    8   36 1    
    22    9   21 1    
    23    9   23 1    
    24    9   30 1    
    25    9   37 1    
    26   10   19 1    
    27   10   38 1    
    28   10   39 1    
    29   11   40 1    
    30   12   14 3    
    31   13   17 ar   
    32   13   29 1    
    33   14   15 1    
    34   15   41 1    
    35   15   42 1    
    36   16   18 ar   
    37   18   20 ar   
    38   18   43 1    
    39   19   21 1    
    40   19   44 1    
    41   19   45 1    
    42   20   27 ar   
    43   20   46 1    
    44   21   25 1    
    45   21   47 1    
    46   22   30 1    
    47   22   48 1    
    48   22   49 1    
    49   22   50 1    
    50   23   24 1    
    51   23   51 1    
    52   23   52 1    
    53   24   53 1    
    54   24   54 1    
    55   24   55 1    
    56   25   26 1    
    57   25   56 1    
    58   25   57 1    
    59   26   58 1    
    60   26   59 1    
    61   27   28 ar   
    62   27   60 1    
    63   28   61 1    
    64   30   62 1    
    65   30   63 1    
@<TRIPOS>SUBSTRUCTURE
     1 LIG         1 GROUP             0       ****    0 ROOT    
