@<TRIPOS>MOLECULE
:3r88_ligand
24   24    1
SMALL
USER_CHARGES


@<TRIPOS>ATOM
      1 CAA        -8.2390  -29.4020    5.7910 C.3       1 LIG         0.1100 
      2 CAB        -4.4180  -32.1130    8.8800 C.3       1 LIG         0.1100 
      3 NAC        -3.5570  -28.2310    4.2100 N.pl3     1 LIG        -0.9000 
      4 OAD        -0.9460  -30.0760    6.8140 O.co2     1 LIG        -0.8000 
      5 OAE        -1.2310  -28.6930    5.1150 O.co2     1 LIG        -0.8000 
      6 CAF        -5.4140  -29.2270    5.2580 C.ar      1 LIG        -0.1150 
      7 CAG        -3.6750  -30.4740    7.0460 C.ar      1 LIG        -0.1150 
      8 OAH        -7.2800  -30.2860    6.4060 O.3       1 LIG        -0.2850 
      9 OAI        -5.5040  -31.4810    8.1340 O.3       1 LIG        -0.2850 
     10 CAJ        -1.6660  -29.4580    5.9960 C.2       1 LIG         0.7150 
     11 CAK        -4.0370  -29.0200    5.1620 C.ar      1 LIG         0.1800 
     12 CAL        -5.9350  -30.0490    6.2630 C.ar      1 LIG         0.0850 
     13 CAM        -5.0460  -30.6670    7.1570 C.ar      1 LIG         0.0850 
     14 CAN        -3.1690  -29.6440    6.0670 C.ar      1 LIG        -0.1150 
     15 HAA1       -9.2253  -29.5829    6.2177 H         1 LIG         0.0300 
     16 HAA2       -8.0080  -28.3500    5.9265 H         1 LIG         0.0300 
     17 HAA3       -8.3022  -29.6033    4.7227 H         1 LIG         0.0300 
     18 HAB1       -4.8846  -32.7925    9.5931 H         1 LIG         0.0300 
     19 HAB2       -3.7749  -32.7504    8.2685 H         1 LIG         0.0300 
     20 HAB3       -3.8453  -31.4135    9.4927 H         1 LIG         0.0300 
     21 HAC1       -2.5496  -28.1226    4.1277 H         1 LIG         0.3600 
     22 HAC2       -4.1429  -27.8016    3.5058 H         1 LIG         0.3600 
     23 HAF        -6.0656  -28.7498    4.5418 H         1 LIG         0.1150 
     24 HAG        -2.9230  -30.8993    7.6851 H         1 LIG         0.1150 
@<TRIPOS>BOND
     1    1    8 1    
     2    1   15 1    
     3    1   16 1    
     4    1   17 1    
     5    2    9 1    
     6    2   18 1    
     7    2   19 1    
     8    2   20 1    
     9    3   11 1    
    10    3   21 1    
    11    3   22 1    
    12    4   10 2    
    13    5   10 1    
    14    6   11 ar   
    15    6   12 ar   
    16    6   23 1    
    17    7   13 ar   
    18    7   14 ar   
    19    7   24 1    
    20    8   12 1    
    21    9   13 1    
    22   10   14 1    
    23   11   14 ar   
    24   12   13 ar   
@<TRIPOS>SUBSTRUCTURE
     1 LIG         1 GROUP             0       ****    0 ROOT    
