@<TRIPOS>MOLECULE
:3f3a_ligand
27   28    1
SMALL
USER_CHARGES


@<TRIPOS>ATOM
      1 N         -25.1770   -3.4330  -19.1820 N.4       1 LIG         0.2475 
      2 CA        -26.1580   -4.5040  -19.1190 C.3       1 LIG         0.0625 
      3 C         -25.7910   -5.5780  -18.0880 C.2       1 LIG         0.4450 
      4 O         -26.6200   -6.3700  -17.6510 O.co2     1 LIG        -0.7225 
      5 CB        -26.2890   -5.1750  -20.4970 C.3       1 LIG        -0.1200 
      6 CG        -26.6810   -4.2690  -21.6110 C.ar      1 LIG         0.0750 
      7 CD1       -25.8810   -3.8350  -22.6350 C.ar      1 LIG        -0.1150 
      8 CD2       -27.9760   -3.6980  -21.8440 C.ar      1 LIG        -0.0550 
      9 NE1       -26.5990   -3.0380  -23.4920 N.pl3     1 LIG        -0.5700 
     10 CE2       -27.8880   -2.9390  -23.0400 C.ar      1 LIG         0.1300 
     11 CE3       -29.2030   -3.7690  -21.1710 C.ar      1 LIG        -0.1150 
     12 CZ2       -28.9740   -2.2400  -23.5720 C.ar      1 LIG        -0.1150 
     13 CZ3       -30.2910   -3.0720  -21.6990 C.ar      1 LIG        -0.1150 
     14 CH2       -30.1660   -2.3180  -22.9010 C.ar      1 LIG        -0.1150 
     15 OXT       -24.6380   -5.7000  -17.6730 O.co2     1 LIG        -0.7225 
     16 H1        -25.0879   -3.0206  -18.2609 H         1 LIG         0.2100 
     17 H2        -24.2845   -3.8167  -19.4602 H         1 LIG         0.2100 
     18 H3        -25.4623   -2.7260  -19.8469 H         1 LIG         0.2100 
     19 HA        -27.1111   -4.0604  -18.8276 H         1 LIG         0.0600 
     20 HB1       -27.0230   -5.9812  -20.4578 H         1 LIG         0.0600 
     21 HB2       -25.3406   -5.6405  -20.7658 H         1 LIG         0.0600 
     22 HD1       -24.8458   -4.1118  -22.7608 H         1 LIG         0.1150 
     23 HNE1      -26.2189   -2.6382  -24.3406 H         1 LIG         0.4200 
     24 HE3       -29.2981   -4.3321  -20.2546 H         1 LIG         0.1150 
     25 HZ2       -28.8805   -1.6812  -24.4903 H         1 LIG         0.1150 
     26 HZ3       -31.2336   -3.0624  -21.1886 H         1 LIG         0.1150 
     27 HH2       -31.0382   -1.8286  -23.2953 H         1 LIG         0.1150 
@<TRIPOS>BOND
     1    1    2 1    
     2    1   16 1    
     3    1   17 1    
     4    1   18 1    
     5    2    5 1    
     6    2    3 1    
     7    2   19 1    
     8    3    4 2    
     9    3   15 1    
    10    5    6 1    
    11    5   20 1    
    12    5   21 1    
    13    6    7 ar   
    14    6    8 ar   
    15    7    9 ar   
    16    7   22 1    
    17    8   11 ar   
    18    8   10 ar   
    19    9   10 ar   
    20    9   23 1    
    21   10   12 ar   
    22   11   13 ar   
    23   11   24 1    
    24   12   14 ar   
    25   12   25 1    
    26   13   14 ar   
    27   13   26 1    
    28   14   27 1    
@<TRIPOS>SUBSTRUCTURE
     1 LIG         1 GROUP             0       ****    0 ROOT    
