3f3a_ligand

Created by X-TOOL on Fri Nov 18 15:14:10 2016
 27 28  0  0  0  0  0  0  0  0999 V2000
  -25.1770   -3.4330  -19.1820  N 0  3  0  4  0  4
  -26.1580   -4.5040  -19.1190  C 0  0  0  2  0  4
  -25.7910   -5.5780  -18.0880  C 0  5  0  1  0  3
  -26.6200   -6.3700  -17.6510  O 0  0  0  1  0  1
  -26.2890   -5.1750  -20.4970  C 0  0  0  3  0  4
  -26.6810   -4.2690  -21.6110  C 0  0  0  1  0  3
  -25.8810   -3.8350  -22.6350  C 0  0  0  2  0  3
  -27.9760   -3.6980  -21.8440  C 0  0  0  1  0  3
  -26.5990   -3.0380  -23.4920  N 0  0  0  2  0  3
  -27.8880   -2.9390  -23.0400  C 0  0  0  1  0  3
  -29.2030   -3.7690  -21.1710  C 0  0  0  2  0  3
  -28.9740   -2.2400  -23.5720  C 0  0  0  2  0  3
  -30.2910   -3.0720  -21.6990  C 0  0  0  2  0  3
  -30.1660   -2.3180  -22.9010  C 0  0  0  2  0  3
  -24.6380   -5.7000  -17.6730  O 0  0  0  1  0  1
  -25.4630   -2.7555  -19.8714  H 0  0  0  1  0  1
  -24.2795   -3.8140  -19.4376  H 0  0  0  1  0  1
  -25.1083   -2.9868  -18.2808  H 0  0  0  1  0  1
  -27.1277   -4.0671  -18.8384  H 0  0  0  1  0  1
  -27.0493   -5.9661  -20.4189  H 0  0  0  1  0  1
  -25.3172   -5.6240  -20.7501  H 0  0  0  1  0  1
  -24.8278   -4.0859  -22.7523  H 0  0  0  1  0  1
  -26.2274   -2.5864  -24.3399  H 0  0  0  1  0  1
  -29.3048   -4.3512  -20.2623  H 0  0  0  1  0  1
  -28.8774   -1.6579  -24.4813  H 0  0  0  1  0  1
  -31.2456   -3.1050  -21.1865  H 0  0  0  1  0  1
  -31.0312   -1.7955  -23.2927  H 0  0  0  1  0  1
  2  1  1  0  0  2
  2  5  1  0  0  2
  2  3  1  0  0  2
  3  4  2  0  0  2
  3 15  2  0  0  2
  5  6  1  0  0  2
  6  7  2  0  0  1
  6  8  1  0  0  1
  8 11  4  0  0  1
  8 10  4  0  0  1
 10 12  4  0  0  1
 10  9  1  0  0  1
  9  7  1  0  0  1
 12 14  4  0  0  1
 14 13  4  0  0  1
 13 11  4  0  0  1
  1 16  1  0  0  2
  1 17  1  0  0  2
  1 18  1  0  0  2
  2 19  1  0  0  2
  5 20  1  0  0  2
  5 21  1  0  0  2
  7 22  1  0  0  2
  9 23  1  0  0  2
 11 24  1  0  0  2
 12 25  1  0  0  2
 13 26  1  0  0  2
 14 27  1  0  0  2
M  END
> <MOLECULAR_FORMULA>
C11H12N2O2

> <MOLECULAR_WEIGHT>
204.1

> <NUM_HB_ATOMS>
4  

> <NUM_ROTOR>
2  

> <XLOGP2>
-1.11

$$$$
