@<TRIPOS>MOLECULE
:2al5_ligand
23   23    1
SMALL
USER_CHARGES


@<TRIPOS>ATOM
      1 N1         20.6200   61.7740   28.7660 N.pl3     1 LIG        -0.3125 
      2 C2         21.1390   61.6000   27.4630 C.ar      1 LIG         0.5000 
      3 O2         20.4630   61.5270   26.4690 O.2       1 LIG        -0.4000 
      4 N3         22.5480   61.5090   27.4200 N.pl3     1 LIG        -0.5100 
      5 C4         23.4370   61.5780   28.4750 C.ar      1 LIG         0.4500 
      6 O4         24.6420   61.4710   28.3450 O.2       1 LIG        -0.4200 
      7 C5         22.7720   61.7620   29.8090 C.ar      1 LIG         0.3875 
      8 F5         23.5570   61.8630   30.9020 F         1 LIG        -0.3575 
      9 C6         21.4210   61.8750   29.8600 C.ar      1 LIG         0.0800 
     10 C7         19.1740   61.9480   28.9370 C.3       1 LIG         0.0025 
     11 C8         18.6210   63.2550   28.3840 C.3       1 LIG         0.0625 
     12 N8         18.9270   64.3890   29.3200 N.4       1 LIG         0.2475 
     13 C9         17.1310   63.2100   28.0560 C.2       1 LIG         0.4450 
     14 O91        16.4070   64.0560   28.5290 O.co2     1 LIG        -0.7225 
     15 O92        16.7790   62.2140   27.3260 O.co2     1 LIG        -0.7225 
     16 HN3        22.9520   61.4286   26.4948 H         1 LIG         0.3600 
     17 H6         20.9892   62.0368   30.8370 H         1 LIG         0.1000 
     18 H71        18.9695   61.8829   29.9933 H         1 LIG         0.0600 
     19 H72        18.7411   61.0507   28.4902 H         1 LIG         0.0600 
     20 H8         19.1383   63.4945   27.4667 H         1 LIG         0.0600 
     21 H81        18.5948   65.2483   28.9031 H         1 LIG         0.2100 
     22 H82        18.4620   64.2480   30.2063 H         1 LIG         0.2100 
     23 H83        19.9275   64.4607   29.4592 H         1 LIG         0.2100 
@<TRIPOS>BOND
     1    1    2 ar   
     2    1    9 ar   
     3    1   10 1    
     4    2    3 2    
     5    2    4 ar   
     6    4    5 ar   
     7    4   16 1    
     8    5    6 2    
     9    5    7 ar   
    10    7    8 1    
    11    7    9 ar   
    12    9   17 1    
    13   10   11 1    
    14   10   18 1    
    15   10   19 1    
    16   11   12 1    
    17   11   13 1    
    18   11   20 1    
    19   12   21 1    
    20   12   22 1    
    21   12   23 1    
    22   13   14 2    
    23   13   15 1    
@<TRIPOS>SUBSTRUCTURE
     1 LIG         1 GROUP             0       ****    0 ROOT    
