@<TRIPOS>MOLECULE
:3gr2_ligand
23   24    1
SMALL
USER_CHARGES


@<TRIPOS>ATOM
      1 O11       -36.5460    5.7220    9.5850 O.3       1 LIG        -0.5850 
      2 C3        -37.1100    5.7140   10.7430 C.ar      1 LIG         0.3210 
      3 C4        -36.5610    6.3630   11.9450 C.ar      1 LIG        -0.2850 
      4 C12       -35.2720    7.1290   12.0900 C.3       1 LIG        -0.0050 
      5 C13       -34.2690    6.1600   12.6930 C.3       1 LIG        -0.1800 
      6 C5        -37.5930    6.0490   12.9870 C.ar      1 LIG         0.2230 
      7 C14       -37.5570    6.4660   14.4360 C.3       1 LIG        -0.0650 
      8 N1        -38.5860    5.3240   12.4110 N.2       1 LIG        -0.5310 
      9 N2        -38.2610    5.1410   11.0580 N.pl3     1 LIG         0.0695 
     10 C6        -39.0380    4.4600   10.2030 C.ar      1 LIG         0.5349 
     11 N10       -40.0810    3.7240   10.6250 N.2       1 LIG        -0.5168 
     12 N9        -40.6200    3.1840    9.4440 N.ar      1 LIG        -0.1894 
     13 N8        -39.8430    3.6390    8.3590 N.ar      1 LIG        -0.1894 
     14 N7        -38.8280    4.4610    8.8740 N.ar      1 LIG        -0.5168 
     15 HO11      -37.1104    5.2465    8.9904 H         1 LIG         0.4350 
     16 H121      -35.3894    8.0028   12.7311 H         1 LIG         0.0600 
     17 H122      -34.9097    7.4887   11.1264 H         1 LIG         0.0600 
     18 H131      -34.5851    5.8417   13.6866 H         1 LIG         0.0600 
     19 H132      -34.1939    5.2616   12.0810 H         1 LIG         0.0600 
     20 H133      -33.2733    6.5410   12.7992 H         1 LIG         0.0600 
     21 H141      -38.4216    6.0818   14.9782 H         1 LIG         0.0600 
     22 H142      -36.6642    6.0850   14.9311 H         1 LIG         0.0600 
     23 H143      -37.5571    7.5517   14.5306 H         1 LIG         0.0600 
@<TRIPOS>BOND
     1    1    2 1    
     2    1   15 1    
     3    2    3 ar   
     4    2    9 ar   
     5    3    4 1    
     6    3    6 ar   
     7    4    5 1    
     8    4   16 1    
     9    4   17 1    
    10    5   18 1    
    11    5   19 1    
    12    5   20 1    
    13    6    7 1    
    14    6    8 ar   
    15    7   21 1    
    16    7   22 1    
    17    7   23 1    
    18    8    9 ar   
    19    9   10 1    
    20   10   11 ar   
    21   10   14 ar   
    22   11   12 ar   
    23   12   13 ar   
    24   13   14 ar   
@<TRIPOS>SUBSTRUCTURE
     1 LIG         1 GROUP             0       ****    0 ROOT    
