@<TRIPOS>MOLECULE
:3cj4_ligand
47   48    1
SMALL
USER_CHARGES


@<TRIPOS>ATOM
      1 O3        -26.6480    3.2990  -15.9790 O.co2     1 LIG        -0.8000 
      2 C18       -27.4220    3.4190  -15.0400 C.2       1 LIG         0.7000 
      3 O4        -27.6680    2.3810  -14.2250 O.co2     1 LIG        -0.8000 
      4 C17       -28.1980    4.6340  -14.6220 C.3       1 LIG        -0.2200 
      5 C16       -27.5030    5.9140  -15.0710 C.3       1 LIG        -0.1200 
      6 C15       -26.1950    6.1790  -14.3410 C.2       1 LIG         0.5000 
      7 O2        -25.8110    5.5300  -13.3640 O.2       1 LIG        -0.5000 
      8 N2        -25.5070    7.2270  -14.9180 N.am      1 LIG        -0.3850 
      9 C14       -24.2660    7.7140  -14.4510 C.ar      1 LIG         0.0850 
     10 C13       -23.1920    6.8500  -14.1950 C.ar      1 LIG        -0.1150 
     11 C12       -21.9800    7.3470  -13.7140 C.ar      1 LIG        -0.1150 
     12 C11       -21.8480    8.7180  -13.4860 C.ar      1 LIG         0.2000 
     13 BR1       -20.2040    9.3590  -12.8330 Br        1 LIG        -0.2000 
     14 C10       -22.8970    9.6040  -13.7270 C.ar      1 LIG        -0.1150 
     15 C9        -24.1150    9.1010  -14.1990 C.ar      1 LIG        -0.1150 
     16 C8        -25.2110   10.0620  -14.4770 C.2       1 LIG         0.6150 
     17 O1        -25.0050   10.8270  -15.4200 O.2       1 LIG        -0.5000 
     18 N1        -26.4010   10.0850  -13.7410 N.am      1 LIG        -0.1400 
     19 C6        -26.5420    9.4540  -12.4120 C.3       1 LIG        -0.0500 
     20 C4        -26.9360   10.3950  -11.2750 C.3       1 LIG        -0.0600 
     21 C5        -27.2850    9.5940  -10.0200 C.3       1 LIG        -0.1800 
     22 C3        -28.1020   11.3000  -11.6710 C.3       1 LIG        -0.1200 
     23 C7        -27.3910   11.1340  -14.0540 C.3       1 LIG        -0.0500 
     24 C2        -27.7100   12.0950  -12.9060 C.3       1 LIG        -0.0600 
     25 C1        -28.8000   13.0900  -13.2970 C.3       1 LIG        -0.1800 
     26 H171      -28.3491    4.6331  -13.5409 H         1 LIG         0.0600 
     27 H172      -29.1882    4.5747  -15.0739 H         1 LIG         0.0600 
     28 H161      -28.1661    6.7597  -14.8852 H         1 LIG         0.0600 
     29 H162      -27.3273    5.8957  -16.1483 H         1 LIG         0.0600 
     30 HN2       -25.9790    7.7618  -15.6321 H         1 LIG         0.3000 
     31 H13       -23.2894    5.7904  -14.3768 H         1 LIG         0.1150 
     32 H12       -21.1519    6.6861  -13.5199 H         1 LIG         0.1150 
     33 H10       -22.7424   10.6574  -13.5949 H         1 LIG         0.1150 
     34 H61       -25.6379    8.9196  -12.1194 H         1 LIG         0.0600 
     35 H62       -27.3079    8.6849  -12.5210 H         1 LIG         0.0600 
     36 H4        -26.0906   11.0431  -11.0543 H         1 LIG         0.0600 
     37 H51       -27.5103   10.2543   -9.1824 H         1 LIG         0.0600 
     38 H52       -28.1551    8.9580  -10.1843 H         1 LIG         0.0600 
     39 H53       -26.4588    8.9514   -9.7160 H         1 LIG         0.0600 
     40 H31       -28.3399   11.9786  -10.8506 H         1 LIG         0.0600 
     41 H32       -28.9989   10.7091  -11.8636 H         1 LIG         0.0600 
     42 H71       -28.3056   10.6102  -14.3352 H         1 LIG         0.0600 
     43 H72       -27.1393   11.7287  -14.9293 H         1 LIG         0.0600 
     44 H2        -26.8101   12.6670  -12.6797 H         1 LIG         0.0600 
     45 H11       -28.5108   13.6591  -14.1802 H         1 LIG         0.0600 
     46 H12       -29.7404   12.5851  -13.5197 H         1 LIG         0.0600 
     47 H13       -28.9863   13.8041  -12.4943 H         1 LIG         0.0600 
@<TRIPOS>BOND
     1    1    2 2    
     2    2    3 1    
     3    2    4 1    
     4    4    5 1    
     5    4   26 1    
     6    4   27 1    
     7    5    6 1    
     8    5   28 1    
     9    5   29 1    
    10    6    7 2    
    11    6    8 am   BACKBONE|DICT|INTERRES
    12    8    9 1    
    13    8   30 1    
    14    9   10 ar   
    15    9   15 ar   
    16   10   11 ar   
    17   10   31 1    
    18   11   12 ar   
    19   11   32 1    
    20   12   13 1    
    21   12   14 ar   
    22   14   15 ar   
    23   14   33 1    
    24   15   16 1    
    25   16   17 2    
    26   16   18 am   BACKBONE|DICT|INTERRES
    27   18   19 1    
    28   18   23 1    
    29   19   20 1    
    30   19   34 1    
    31   19   35 1    
    32   20   21 1    
    33   20   22 1    
    34   20   36 1    
    35   21   37 1    
    36   21   38 1    
    37   21   39 1    
    38   22   24 1    
    39   22   40 1    
    40   22   41 1    
    41   23   24 1    
    42   23   42 1    
    43   23   43 1    
    44   24   25 1    
    45   24   44 1    
    46   25   45 1    
    47   25   46 1    
    48   25   47 1    
@<TRIPOS>SUBSTRUCTURE
     1 LIG         1 GROUP             0       ****    0 ROOT    
