@<TRIPOS>MOLECULE
:4qac_ligand
43   45    1
SMALL
USER_CHARGES


@<TRIPOS>ATOM
      1 C1        -46.7210  -46.9650   28.6010 C.3       1 LIG         0.0900 
      2 C3        -45.2960  -47.1150   29.1230 C.3       1 LIG        -0.1200 
      3 C7        -45.1710  -46.8060   30.6290 C.3       1 LIG        -0.0600 
      4 C8        -44.8300  -45.3370   30.8470 C.3       1 LIG        -0.1800 
      5 C9        -46.4790  -47.1720   31.3350 C.3       1 LIG        -0.1200 
      6 C10       -47.2000  -48.3100   30.6380 C.3       1 LIG         0.0900 
      7 N2        -47.6880  -47.8660   29.3220 N.pl3     1 LIG        -0.6200 
      8 C4        -49.0610  -47.5430   29.2790 C.ar      1 LIG         0.8640 
      9 C5        -49.9510  -47.3770   30.3860 C.ar      1 LIG        -0.6890 
     10 N3        -49.4760  -47.3410   27.9920 N.ar      1 LIG        -0.8390 
     11 C2        -50.8140  -47.0000   27.8390 C.ar      1 LIG         1.0420 
     12 N4        -51.2650  -46.8030   26.5340 N.pl3     1 LIG        -0.9200 
     13 N1        -51.7220  -46.8280   28.8190 N.ar      1 LIG        -0.8390 
     14 C6        -51.2930  -47.0190   30.0880 C.ar      1 LIG         0.6640 
     15 C11       -52.3670  -46.8140   31.1140 C.ar      1 LIG         0.0000 
     16 C12       -53.2160  -47.8800   31.4750 C.ar      1 LIG        -0.1150 
     17 C13       -54.2720  -47.6970   32.3920 C.ar      1 LIG        -0.1150 
     18 C14       -54.4930  -46.4360   32.9470 C.ar      1 LIG         0.1500 
     19 C15       -55.6360  -46.1970   33.9310 C.3       1 LIG         0.4500 
     20 F1        -55.3340  -45.4650   35.0250 F         1 LIG        -0.2000 
     21 F2        -56.2490  -47.3250   34.3860 F         1 LIG        -0.2000 
     22 F3        -56.6180  -45.4810   33.3520 F         1 LIG        -0.2000 
     23 C16       -53.6870  -45.3670   32.5840 C.ar      1 LIG        -0.1150 
     24 C17       -52.6430  -45.5490   31.6700 C.ar      1 LIG        -0.1150 
     25 H11       -46.7492  -47.2096   27.5395 H         1 LIG         0.0600 
     26 H12       -47.0431  -45.9300   28.6972 H         1 LIG         0.0600 
     27 H31       -44.6134  -46.4921   28.5454 H         1 LIG         0.0600 
     28 H32       -44.9705  -48.1405   28.9403 H         1 LIG         0.0600 
     29 H7        -44.3657  -47.4166   31.0292 H         1 LIG         0.0600 
     30 H81       -44.9429  -45.0600   31.8916 H         1 LIG         0.0600 
     31 H82       -43.8094  -45.1142   30.5351 H         1 LIG         0.0600 
     32 H83       -45.4966  -44.6888   30.2773 H         1 LIG         0.0600 
     33 H91       -47.1467  -46.3117   31.4085 H         1 LIG         0.0600 
     34 H92       -46.2429  -47.4599   32.3573 H         1 LIG         0.0600 
     35 H101      -47.9857  -48.7266   31.2652 H         1 LIG         0.0600 
     36 H102      -46.5116  -49.1417   30.4843 H         1 LIG         0.0600 
     37 H5        -49.6426  -47.4915   31.4105 H         1 LIG         0.1970 
     38 H41       -52.1917  -46.4273   26.3586 H         1 LIG         0.3600 
     39 H42       -50.6037  -46.8216   25.7674 H         1 LIG         0.3600 
     40 H12       -53.0236  -48.8582   31.0652 H         1 LIG         0.1150 
     41 H13       -54.8981  -48.5338   32.6630 H         1 LIG         0.1150 
     42 H16       -53.8658  -44.3869   33.0016 H         1 LIG         0.1150 
     43 H17       -52.0158  -44.7454   31.3893 H         1 LIG         0.1150 
@<TRIPOS>BOND
     1    1    2 1    
     2    1    7 1    
     3    1   25 1    
     4    1   26 1    
     5    2    3 1    
     6    2   27 1    
     7    2   28 1    
     8    3    4 1    
     9    3    5 1    
    10    3   29 1    
    11    4   30 1    
    12    4   31 1    
    13    4   32 1    
    14    5    6 1    
    15    5   33 1    
    16    5   34 1    
    17    6    7 1    
    18    6   35 1    
    19    6   36 1    
    20    7    8 1    
    21    8    9 ar   
    22    8   10 ar   
    23    9   14 ar   
    24    9   37 1    
    25   10   11 ar   
    26   11   12 1    
    27   11   13 ar   
    28   12   38 1    
    29   12   39 1    
    30   13   14 ar   
    31   14   15 1    
    32   15   16 ar   
    33   15   24 ar   
    34   16   17 ar   
    35   16   40 1    
    36   17   18 ar   
    37   17   41 1    
    38   18   19 1    
    39   18   23 ar   
    40   19   20 1    
    41   19   21 1    
    42   19   22 1    
    43   23   24 ar   
    44   23   42 1    
    45   24   43 1    
@<TRIPOS>SUBSTRUCTURE
     1 LIG         1 GROUP             0       ****    0 ROOT    
