@<TRIPOS>MOLECULE
:3gbb_ligand
34   35    1
SMALL
USER_CHARGES


@<TRIPOS>ATOM
      1 O          -0.8170   45.2370   -0.9810 O.co2     1 LIG        -0.7225 
      2 C          -1.0370   44.0780   -0.5690 C.2       1 LIG         0.4450 
      3 OXT        -1.5230   43.1350   -1.2330 O.co2     1 LIG        -0.7225 
      4 CA         -0.6620   43.7910    0.8850 C.3       1 LIG         0.0625 
      5 N          -0.9680   42.3940    1.2250 N.4       1 LIG         0.2475 
      6 CB          0.8300   44.0870    1.0630 C.3       1 LIG        -0.1200 
      7 CAS         1.2030   44.1780    2.5440 C.3       1 LIG         0.2000 
      8 CAJ         2.7070   44.4540    2.6510 C.3       1 LIG        -0.1200 
      9 CAN         0.3910   45.2750    3.2340 C.2       1 LIG         0.6000 
     10 OAC        -0.1330   44.9940    4.3340 O.co2     1 LIG        -0.8000 
     11 OAE         0.2960   46.3700    2.6380 O.co2     1 LIG        -0.8000 
     12 OAL         1.0080   42.9110    3.1830 O.3       1 LIG        -0.4000 
     13 CAR         2.1810   42.1810    2.8020 C.3       1 LIG         0.1700 
     14 CAQ         3.2570   43.1570    3.2470 C.3       1 LIG         0.1700 
     15 CAH         2.2610   40.8620    3.5720 C.3       1 LIG        -0.1200 
     16 CAP         2.4000   41.1160    5.0730 C.3       1 LIG        -0.1200 
     17 CAG         3.5820   42.0530    5.3200 C.3       1 LIG         0.1400 
     18 OAK         3.2970   43.3040    4.6760 O.3       1 LIG        -0.4000 
     19 HA         -1.2789   44.4115    1.5152 H         1 LIG         0.0600 
     20 H1         -0.7516   42.2071    2.1974 H         1 LIG         0.2100 
     21 H2         -1.9575   42.2340    1.0791 H         1 LIG         0.2100 
     22 H3         -0.4413   41.7718    0.6283 H         1 LIG         0.2100 
     23 HB1         1.1078   45.0351    0.5989 H         1 LIG         0.0600 
     24 HB2         1.4000   43.3487    0.5174 H         1 LIG         0.0600 
     25 HAJ1        2.9464   45.2957    3.2997 H         1 LIG         0.0600 
     26 HAJ2        3.1613   44.6676    1.6852 H         1 LIG         0.0600 
     27 HAR         2.2224   41.9436    1.7455 H         1 LIG         0.0300 
     28 HAQ         4.2445   42.9097    2.8572 H         1 LIG         0.0300 
     29 HAH1        3.1171   40.2880    3.2213 H         1 LIG         0.0600 
     30 HAH2        1.3776   40.2557    3.3703 H         1 LIG         0.0600 
     31 HAP1        2.5396   40.2169    5.5848 H         1 LIG         0.0600 
     32 HAP2        1.4832   41.5518    5.4675 H         1 LIG         0.0600 
     33 HAG1        4.5004   41.6263    4.9193 H         1 LIG         0.0300 
     34 HAG2        3.7700   42.2004    6.3762 H         1 LIG         0.0300 
@<TRIPOS>BOND
     1    1    2 2    
     2    2    3 1    
     3    2    4 1    
     4    4    5 1    
     5    4    6 1    
     6    4   19 1    
     7    5   20 1    
     8    5   21 1    
     9    5   22 1    
    10    6    7 1    
    11    6   23 1    
    12    6   24 1    
    13    7    8 1    
    14    7    9 1    
    15    7   12 1    
    16    8   14 1    
    17    8   25 1    
    18    8   26 1    
    19    9   10 2    
    20    9   11 1    
    21   12   13 1    
    22   13   14 1    
    23   13   15 1    
    24   13   27 1    
    25   14   18 1    
    26   14   28 1    
    27   15   16 1    
    28   15   29 1    
    29   15   30 1    
    30   16   17 1    
    31   16   31 1    
    32   16   32 1    
    33   17   18 1    
    34   17   33 1    
    35   17   34 1    
@<TRIPOS>SUBSTRUCTURE
     1 LIG         1 GROUP             0       ****    0 ROOT    
