@<TRIPOS>MOLECULE
:5c28_ligand
22   23    1
SMALL
USER_CHARGES


@<TRIPOS>ATOM
      1 C2          4.3910   11.6160   43.0560 C.ar      1 LIG         0.8640 
      2 C3          3.9510   13.1040   41.3420 C.ar      1 LIG         0.7270 
      3 N4          3.2290   13.9100   42.1270 N.ar      1 LIG        -0.8390 
      4 C7          4.1320   13.4590   39.9290 C.3       1 LIG         0.0550 
      5 C9          4.4490   14.8690   39.5240 C.3       1 LIG        -0.1200 
      6 C           3.1100   13.5230   43.3930 C.ar      1 LIG         0.8440 
      7 N           4.5250   11.9650   41.7660 N.ar      1 LIG        -0.8390 
      8 C1          3.6650   12.3890   43.9400 C.ar      1 LIG        -0.6070 
      9 N5          5.0070   10.4160   43.4630 N.pl3     1 LIG        -0.9200 
     10 C6          3.4580   12.0800   45.3910 C.3       1 LIG        -0.0650 
     11 C8          3.0920   14.2910   39.2340 C.3       1 LIG        -0.1200 
     12 CL          2.1860   14.5780   44.3610 Cl        1 LIG        -0.1800 
     13 H7          4.5922   12.6551   39.3562 H         1 LIG         0.0600 
     14 H91         5.1619   15.0290   38.7303 H         1 LIG         0.0600 
     15 H92         4.5146   15.6063   40.3212 H         1 LIG         0.0600 
     16 H51         4.8799   10.0513   44.3950 H         1 LIG         0.3600 
     17 H52         5.4616    9.8160   42.7908 H         1 LIG         0.3600 
     18 H61         3.7870   12.9104   46.0157 H         1 LIG         0.0600 
     19 H62         2.4008   11.9043   45.5930 H         1 LIG         0.0600 
     20 H63         4.0068   11.1979   45.7183 H         1 LIG         0.0600 
     21 H81         2.2397   14.6445   39.8074 H         1 LIG         0.0600 
     22 H82         2.8690   14.0415   38.1989 H         1 LIG         0.0600 
@<TRIPOS>BOND
     1    1    7 ar   
     2    1    8 ar   
     3    1    9 1    
     4    2    3 ar   
     5    2    4 1    
     6    2    7 ar   
     7    3    6 ar   
     8    4    5 1    
     9    4   11 1    
    10    4   13 1    
    11    5   11 1    
    12    5   14 1    
    13    5   15 1    
    14    6    8 ar   
    15    6   12 1    
    16    8   10 1    
    17    9   16 1    
    18    9   17 1    
    19   10   18 1    
    20   10   19 1    
    21   10   20 1    
    22   11   21 1    
    23   11   22 1    
@<TRIPOS>SUBSTRUCTURE
     1 LIG         1 GROUP             0       ****    0 ROOT    
