@<TRIPOS>MOLECULE
:3n76_ligand
39   40    1
SMALL
USER_CHARGES


@<TRIPOS>ATOM
      1 O2        -37.9190  -62.9070  -52.3590 O.co2     1 LIG        -0.8000 
      2 C7        -37.7280  -61.6870  -52.0010 C.2       1 LIG         0.7000 
      3 O1        -36.5970  -61.1070  -51.9230 O.co2     1 LIG        -0.8000 
      4 C1        -38.9520  -60.8160  -51.6350 C.3       1 LIG         0.1650 
      5 O3        -39.0280  -59.6360  -52.5020 O.3       1 LIG        -0.6830 
      6 C2        -38.7560  -60.5220  -50.2680 C.2       1 LIG        -0.1150 
      7 C3        -39.8330  -60.2740  -49.3930 C.2       1 LIG         0.0000 
      8 C4        -41.3310  -60.4960  -49.7650 C.3       1 LIG         0.2050 
      9 O4        -42.2780  -59.4930  -49.2220 O.3       1 LIG        -0.6830 
     10 C5        -41.4610  -60.6470  -51.2940 C.3       1 LIG         0.2050 
     11 O5        -42.6860  -61.2920  -51.6420 O.3       1 LIG        -0.6830 
     12 C6        -40.3040  -61.5270  -51.7910 C.3       1 LIG        -0.1200 
     13 C8        -39.3610  -60.1370  -48.1010 C.2       1 LIG        -0.1150 
     14 C9        -40.0460  -59.9340  -46.9290 C.2       1 LIG        -0.1840 
     15 C10       -39.1050  -59.7310  -45.9320 C.3       1 LIG         0.2090 
     16 O11       -39.1710  -60.5770  -44.8650 O.3       1 LIG        -0.2850 
     17 C12       -38.0430  -61.0090  -44.2490 C.ar      1 LIG         0.0850 
     18 C17       -36.8250  -61.1310  -44.8980 C.ar      1 LIG        -0.1150 
     19 C16       -35.6890  -61.6260  -44.2260 C.ar      1 LIG        -0.1150 
     20 C15       -35.8210  -62.0260  -42.9010 C.ar      1 LIG        -0.1150 
     21 C14       -37.0690  -61.9100  -42.2420 C.ar      1 LIG        -0.1150 
     22 C13       -38.1800  -61.4060  -42.9150 C.ar      1 LIG        -0.1150 
     23 HO3       -38.1969  -59.1814  -52.4594 H         1 LIG         0.4180 
     24 H2        -37.7368  -60.4231  -49.9143 H         1 LIG         0.1150 
     25 H4        -41.6068  -61.4460  -49.3074 H         1 LIG         0.0600 
     26 HO4       -42.8077  -59.9030  -48.5392 H         1 LIG         0.4180 
     27 H5        -41.4541  -59.6675  -51.7726 H         1 LIG         0.0600 
     28 HO5       -42.9400  -60.9897  -52.5046 H         1 LIG         0.4180 
     29 H61       -40.3107  -62.4871  -51.2705 H         1 LIG         0.0600 
     30 H62       -40.4565  -61.7525  -52.8429 H         1 LIG         0.0600 
     31 H8        -38.2820  -60.1684  -47.9985 H         1 LIG         0.1150 
     32 H9        -41.1227  -59.9188  -46.8079 H         1 LIG         0.1150 
     33 H101      -39.8929  -59.1553  -45.5022 H         1 LIG         0.0300 
     34 H102      -38.2350  -59.0870  -46.0881 H         1 LIG         0.0300 
     35 H17       -36.7256  -60.8566  -45.9377 H         1 LIG         0.1150 
     36 H16       -34.7520  -61.7181  -44.7497 H         1 LIG         0.1150 
     37 H15       -34.9639  -62.4134  -42.3765 H         1 LIG         0.1150 
     38 H14       -37.1674  -62.2150  -41.2110 H         1 LIG         0.1150 
     39 H13       -39.1339  -61.3313  -42.4127 H         1 LIG         0.1150 
@<TRIPOS>BOND
     1    1    2 2    
     2    2    3 1    
     3    2    4 1    
     4    4    5 1    
     5    4    6 1    
     6    4   12 1    
     7    5   23 1    
     8    6    7 2    
     9    6   24 1    
    10    7    8 1    
    11    7   13 1    
    12    8    9 1    
    13    8   10 1    
    14    8   25 1    
    15    9   26 1    
    16   10   11 1    
    17   10   12 1    
    18   10   27 1    
    19   11   28 1    
    20   12   29 1    
    21   12   30 1    
    22   13   14 2    
    23   13   31 1    
    24   14   15 1    
    25   14   32 1    
    26   15   16 1    
    27   15   33 1    
    28   15   34 1    
    29   16   17 1    
    30   17   18 ar   
    31   17   22 ar   
    32   18   19 ar   
    33   18   35 1    
    34   19   20 ar   
    35   19   36 1    
    36   20   21 ar   
    37   20   37 1    
    38   21   22 ar   
    39   21   38 1    
    40   22   39 1    
@<TRIPOS>SUBSTRUCTURE
     1 LIG         1 GROUP             0       ****    0 ROOT    
