@<TRIPOS>MOLECULE
:2p4y_ligand
61   65    1
SMALL
USER_CHARGES


@<TRIPOS>ATOM
      1 C1         15.7060    5.0230   15.8040 C.ar      1 LIG        -0.2222 
      2 C2         14.5690    4.8940   15.0080 C.ar      1 LIG        -0.2243 
      3 C3         14.7540    4.8640   13.4680 C.ar      1 LIG         0.1233 
      4 C4         15.9600    4.9680   12.8790 C.ar      1 LIG         0.2860 
      5 C5         17.1240    5.1010   13.7060 C.ar      1 LIG        -0.3541 
      6 C6         17.0010    5.1260   15.1730 C.ar      1 LIG         0.1471 
      7 C10        13.6520    4.7270   12.5630 C.ar      1 LIG        -0.1190 
      8 C11        14.3400    4.7660   11.3250 C.ar      1 LIG        -0.0293 
      9 N12        15.7630    4.9160   11.4830 N.pl3     1 LIG        -0.2434 
     10 C13        12.1760    4.5870   12.8970 C.2       1 LIG         0.4580 
     11 C14        13.6790    4.6670    9.9520 C.3       1 LIG        -0.0650 
     12 C18        16.8450    5.0030   10.4580 C.3       1 LIG         0.1175 
     13 O19        18.1770    5.2480   15.8840 O.3       1 LIG        -0.2500 
     14 C20        18.8370    4.1520   16.4650 C.3       1 LIG         0.6000 
     15 F21        19.9500    4.6200   16.9880 F         1 LIG        -0.1500 
     16 F22        19.1280    3.2360   15.5240 F         1 LIG        -0.1500 
     17 F23        18.0820    3.6260   17.4220 F         1 LIG        -0.1500 
     18 C24        17.1860    6.4530    9.9960 C.ar      1 LIG        -0.1150 
     19 C27        16.2810    7.5630   10.3110 C.ar      1 LIG        -0.1150 
     20 C28        16.5450    8.9190    9.9100 C.ar      1 LIG         0.0850 
     21 C29        17.7510    9.1930    9.1630 C.ar      1 LIG        -0.1150 
     22 C30        18.6650    8.1390    8.8330 C.ar      1 LIG        -0.1150 
     23 C31        18.3910    6.7900    9.2440 C.ar      1 LIG         0.1800 
     24 CL1        19.5630    5.6330    8.7920 Cl        1 LIG        -0.1800 
     25 O36        15.5840    9.9040   10.3050 O.3       1 LIG        -0.2850 
     26 C37        15.1050   10.9540    9.4340 C.3       1 LIG         0.1700 
     27 C38        14.1280   11.7970   10.2660 C.3       1 LIG        -0.1800 
     28 C42        14.2750   10.4740    8.2450 C.2       1 LIG         0.6000 
     29 O44        14.1880   11.0690    7.2330 O.co2     1 LIG        -0.8000 
     30 O45        13.6520    9.3050    8.4960 O.co2     1 LIG        -0.8000 
     31 N46        11.0630    5.2530   12.4460 N.2       1 LIG        -0.4130 
     32 O47         9.9160    4.8200   13.0360 O.3       1 LIG        -0.1220 
     33 C48        10.2160    3.8320   13.9190 C.ar      1 LIG         0.2822 
     34 C49        11.6320    3.6550   13.8470 C.ar      1 LIG        -0.2052 
     35 C50         9.3930    3.0830   14.7690 C.ar      1 LIG        -0.1150 
     36 C51         9.9840    2.0600   15.6400 C.ar      1 LIG         0.0850 
     37 C52        11.3960    1.8370   15.6000 C.ar      1 LIG        -0.1150 
     38 C53        12.2150    2.6010   14.7370 C.ar      1 LIG        -0.1150 
     39 O57         9.1060    1.3610   16.4600 O.3       1 LIG        -0.2850 
     40 C58         8.3730    2.0540   17.4470 C.3       1 LIG         0.1100 
     41 H1         15.5898    4.9200   16.8647 H         1 LIG         0.1489 
     42 H2         13.5957    4.8077   15.4663 H         1 LIG         0.1699 
     43 H5         18.0993    5.1799   13.2487 H         1 LIG         0.1796 
     44 H141       14.0326    5.4661    9.3011 H         1 LIG         0.0600 
     45 H142       13.9261    3.7110    9.4929 H         1 LIG         0.0600 
     46 H143       12.5941    4.7442   10.0181 H         1 LIG         0.0600 
     47 H181       16.5600    4.4054    9.5916 H         1 LIG         0.0600 
     48 H182       17.7404    4.5570   10.8759 H         1 LIG         0.0600 
     49 H27        15.3724    7.3796   10.8638 H         1 LIG         0.1150 
     50 H29        17.9703   10.2028    8.8502 H         1 LIG         0.1150 
     51 H30        19.5551    8.3566    8.2628 H         1 LIG         0.1150 
     52 H37        15.9465   11.5607    9.0978 H         1 LIG         0.0300 
     53 H381       14.0150   12.7856    9.8199 H         1 LIG         0.0600 
     54 H382       13.1277   11.3709   10.3127 H         1 LIG         0.0600 
     55 H383       14.5013   11.9514   11.2789 H         1 LIG         0.0600 
     56 H50         8.3279    3.2639   14.7777 H         1 LIG         0.1150 
     57 H52        11.8402    1.0879   16.2310 H         1 LIG         0.1150 
     58 H53        13.2781    2.4124   14.7198 H         1 LIG         0.1150 
     59 H581        7.6903    1.3402   17.8947 H         1 LIG         0.0300 
     60 H582        9.0189    2.4051   18.2395 H         1 LIG         0.0300 
     61 H583        7.7954    2.8877   17.0474 H         1 LIG         0.0300 
@<TRIPOS>BOND
     1    1    2 ar   
     2    1    6 ar   
     3    1   41 1    
     4    2    3 ar   
     5    2   42 1    
     6    3    4 ar   
     7    3    7 ar   
     8    4    5 ar   
     9    4    9 ar   
    10    5    6 ar   
    11    5   43 1    
    12    6   13 1    
    13    7    8 ar   
    14    7   10 1    
    15    8    9 ar   
    16    8   11 1    
    17    9   12 1    
    18   10   31 2    
    19   10   34 1    
    20   11   44 1    
    21   11   45 1    
    22   11   46 1    
    23   12   18 1    
    24   12   47 1    
    25   12   48 1    
    26   13   14 1    
    27   14   15 1    
    28   14   16 1    
    29   14   17 1    
    30   18   19 ar   
    31   18   23 ar   
    32   19   20 ar   
    33   19   49 1    
    34   20   21 ar   
    35   20   25 1    
    36   21   22 ar   
    37   21   50 1    
    38   22   23 ar   
    39   22   51 1    
    40   23   24 1    
    41   25   26 1    
    42   26   27 1    
    43   26   28 1    
    44   26   52 1    
    45   27   53 1    
    46   27   54 1    
    47   27   55 1    
    48   28   29 2    
    49   28   30 1    
    50   31   32 1    
    51   32   33 1    
    52   33   34 ar   
    53   33   35 ar   
    54   34   38 ar   
    55   35   36 ar   
    56   35   56 1    
    57   36   37 ar   
    58   36   39 1    
    59   37   38 ar   
    60   37   57 1    
    61   38   58 1    
    62   39   40 1    
    63   40   59 1    
    64   40   60 1    
    65   40   61 1    
@<TRIPOS>SUBSTRUCTURE
     1 LIG         1 GROUP             0       ****    0 ROOT    
