@<TRIPOS>MOLECULE
:3dd0_ligand
25   26    1
SMALL
USER_CHARGES


@<TRIPOS>ATOM
      1 N1         -5.4650   -0.6060   16.2520 N.2       1 LIG        -1.3250 
      2 C2         -3.6850    3.3930   15.2430 C.ar      1 LIG         0.6314 
      3 C3         -4.8450    4.0640   14.8540 C.ar      1 LIG        -0.1027 
      4 C4         -4.7370    5.2650   14.1050 C.ar      1 LIG        -0.1407 
      5 C5         -3.3640    5.6120   13.8750 C.ar      1 LIG        -0.0262 
      6 C8         -1.9210    7.5120   13.0240 C.3       1 LIG         0.1400 
      7 O1         -5.6250    0.8590   18.2690 O.2       1 LIG        -0.4680 
      8 O2         -7.4470    0.8910   16.6670 O.2       1 LIG        -0.4680 
      9 S1         -6.0450    0.7020   16.9090 S.o2      1 LIG         1.0435 
     10 C1         -5.2880    2.0820   16.0560 C.2       1 LIG         0.3233 
     11 N2         -3.9690    2.2590   15.9940 N.2       1 LIG        -0.5991 
     12 S2         -6.2190    3.2530   15.3190 S.3       1 LIG        -0.0839 
     13 C6         -2.1720    4.9870   14.2630 C.ar      1 LIG         0.0055 
     14 C7         -2.3270    3.7790   15.0230 C.ar      1 LIG        -0.4461 
     15 O3         -3.2050    6.7660   13.0960 O.3       1 LIG        -0.3000 
     16 C9         -1.7510    8.4140   14.2560 C.3       1 LIG        -0.1800 
     17 HN1        -4.7909   -0.3514   15.5199 H         1 LIG         0.2100 
     18 H4         -5.5801    5.8289   13.7340 H         1 LIG         0.2050 
     19 H81        -2.0016    8.1609   12.1518 H         1 LIG         0.0300 
     20 H82        -1.0442    6.9032   12.8134 H         1 LIG         0.0300 
     21 H6         -1.1723    5.3286   14.0616 H         1 LIG         0.1296 
     22 H7         -1.4849    3.2573   15.4423 H         1 LIG         0.2114 
     23 H91        -0.8288    8.9909   14.1863 H         1 LIG         0.0600 
     24 H92        -2.5709    9.1199   14.3613 H         1 LIG         0.0600 
     25 H93        -1.7006    7.8232   15.1710 H         1 LIG         0.0600 
@<TRIPOS>BOND
     1    1    9 1    
     2    1   17 1    
     3    2    3 ar   
     4    2   11 1    
     5    2   14 ar   
     6    3    4 ar   
     7    3   12 1    
     8    4    5 ar   
     9    4   18 1    
    10    5   13 ar   
    11    5   15 1    
    12    6   15 1    
    13    6   16 1    
    14    6   19 1    
    15    6   20 1    
    16    7    9 2    
    17    8    9 2    
    18    9   10 1    
    19   10   11 2    
    20   10   12 1    
    21   13   14 ar   
    22   13   21 1    
    23   14   22 1    
    24   16   23 1    
    25   16   24 1    
    26   16   25 1    
@<TRIPOS>SUBSTRUCTURE
     1 LIG         1 GROUP             0       ****    0 ROOT    
