@<TRIPOS>MOLECULE
:3g31_ligand
31   33    1
SMALL
USER_CHARGES


@<TRIPOS>ATOM
      1 O10        -3.1350   40.5370   23.9780 O.2       1 LIG        -0.5080 
      2 C7         -1.9700   40.6110   24.3310 C.2       1 LIG         0.6305 
      3 N8         -0.9010   40.0910   23.6990 N.am      1 LIG        -0.3150 
      4 C12        -0.9380   39.3220   22.4440 C.3       1 LIG        -0.0900 
      5 C14        -1.7610   38.0560   22.5570 C.2       1 LIG         0.7000 
      6 O16        -1.7910   37.4390   23.6600 O.co2     1 LIG        -0.8000 
      7 O15        -2.3770   37.6620   21.5400 O.co2     1 LIG        -0.8000 
      8 C13        -1.3810   40.1670   21.2420 C.3       1 LIG        -0.1800 
      9 C2         -1.5430   41.2920   25.6030 C.3       1 LIG        -0.0600 
     10 C3         -0.0250   41.0990   25.6300 C.3       1 LIG        -0.0600 
     11 C9          0.2410   40.3240   24.3680 C.2       1 LIG         0.6305 
     12 O11         1.3630   39.9550   24.0370 O.2       1 LIG        -0.5080 
     13 C1         -1.6770   42.8190   25.6340 C.3       1 LIG        -0.0600 
     14 C6         -1.2130   43.4770   24.3330 C.3       1 LIG        -0.1200 
     15 C5          0.3130   43.2860   24.3820 C.3       1 LIG        -0.1200 
     16 C17        -0.5190   43.2020   26.5410 C.3       1 LIG        -0.1200 
     17 C4          0.5300   42.5270   25.6850 C.3       1 LIG        -0.0600 
     18 H12         0.0671   38.9721   22.2046 H         1 LIG         0.0600 
     19 H131       -0.9839   39.7823   20.3021 H         1 LIG         0.0600 
     20 H132       -2.4675   40.2187   21.1544 H         1 LIG         0.0600 
     21 H133       -1.0579   41.1943   21.3664 H         1 LIG         0.0600 
     22 H2         -2.0174   40.8264   26.4682 H         1 LIG         0.0600 
     23 H3          0.2790   40.5180   26.5019 H         1 LIG         0.0600 
     24 H1         -2.6518   43.1641   25.9799 H         1 LIG         0.0600 
     25 H61        -1.4506   44.5421   24.3480 H         1 LIG         0.0600 
     26 H62        -1.6671   43.0766   23.4266 H         1 LIG         0.0600 
     27 H51         0.8138   44.2547   24.4118 H         1 LIG         0.0600 
     28 H52         0.7050   42.7528   23.5197 H         1 LIG         0.0600 
     29 H171       -0.6000   42.7715   27.5412 H         1 LIG         0.0600 
     30 H172       -0.3828   44.2801   26.6414 H         1 LIG         0.0600 
     31 H4          1.5468   42.5927   26.0734 H         1 LIG         0.0600 
@<TRIPOS>BOND
     1    1    2 2    
     2    2    3 am   BACKBONE|DICT|INTERRES
     3    2    9 1    
     4    3    4 1    
     5    3   11 am   BACKBONE|DICT|INTERRES
     6    4    5 1    
     7    4    8 1    
     8    4   18 1    
     9    5    6 2    
    10    5    7 1    
    11    8   19 1    
    12    8   20 1    
    13    8   21 1    
    14    9   10 1    
    15    9   13 1    
    16    9   22 1    
    17   10   11 1    
    18   10   17 1    
    19   10   23 1    
    20   11   12 2    
    21   13   14 1    
    22   13   16 1    
    23   13   24 1    
    24   14   15 1    
    25   14   25 1    
    26   14   26 1    
    27   15   17 1    
    28   15   27 1    
    29   15   28 1    
    30   16   17 1    
    31   16   29 1    
    32   16   30 1    
    33   17   31 1    
@<TRIPOS>SUBSTRUCTURE
     1 LIG         1 GROUP             0       ****    0 ROOT    
