@<TRIPOS>MOLECULE
:4jsz_ligand
17   17    1
SMALL
USER_CHARGES


@<TRIPOS>ATOM
      1 C01        34.8690   -2.1350   10.8780 C.ar      1 LIG        -0.1150 
      2 C02        34.3000   -3.0810   11.7280 C.ar      1 LIG        -0.1150 
      3 C03        33.3500   -2.6900   12.6900 C.ar      1 LIG        -0.1150 
      4 C04        33.0010   -1.3190   12.8210 C.ar      1 LIG         0.1567 
      5 C05        33.5630   -0.3670   11.9650 C.ar      1 LIG        -0.1150 
      6 C06        34.4790   -0.7890   10.9820 C.ar      1 LIG        -0.1150 
      7 S07        31.7320   -0.8530   14.1030 S.o2      1 LIG         0.8327 
      8 O09        31.0260    0.3950   13.6750 O.2       1 LIG        -0.4680 
      9 O08        32.4530   -0.6460   15.4910 O.2       1 LIG        -0.4680 
     10 NP0        30.8470   -2.1460   14.0950 N.pl3     1 LIG        -0.7678 
     11 H01        35.5919   -2.4371   10.1344 H         1 LIG         0.1150 
     12 H02        34.5857   -4.1187   11.6438 H         1 LIG         0.1150 
     13 H03        32.9266   -3.4353   13.3432 H         1 LIG         0.1150 
     14 H05        33.2903    0.6748   12.0529 H         1 LIG         0.1150 
     15 H06        34.9140   -0.0579   10.3166 H         1 LIG         0.1150 
     16 HP01       30.2123   -2.1629   14.8921 H         1 LIG         0.3572 
     17 HP02       30.3257   -2.2330   13.2231 H         1 LIG         0.3572 
@<TRIPOS>BOND
     1    1    2 ar   
     2    1    6 ar   
     3    1   11 1    
     4    2    3 ar   
     5    2   12 1    
     6    3    4 ar   
     7    3   13 1    
     8    4    5 ar   
     9    4    7 1    
    10    5    6 ar   
    11    5   14 1    
    12    6   15 1    
    13    7    8 2    
    14    7    9 2    
    15    7   10 1    
    16   10   16 1    
    17   10   17 1    
@<TRIPOS>SUBSTRUCTURE
     1 LIG         1 GROUP             0       ****    0 ROOT    
