@<TRIPOS>MOLECULE
:4f9w_ligand
43   46    1
SMALL
USER_CHARGES


@<TRIPOS>ATOM
      1 C3          0.9190    4.6690   22.6420 C.3       1 LIG         0.0300 
      2 N2          0.4040    3.3730   23.0710 N.pl3     1 LIG        -0.6200 
      3 C1          1.0060    2.6990   24.2240 C.3       1 LIG         0.0300 
      4 C4         -0.6160    2.7590   22.3120 C.ar      1 LIG         0.5690 
      5 N9         -1.0820    3.4070   21.2270 N.ar      1 LIG        -0.3310 
      6 N8         -2.0740    2.8890   20.4090 N.ar      1 LIG        -0.3310 
      7 C7         -2.6060    1.6870   20.6480 C.ar      1 LIG         0.3690 
      8 C6         -2.1490    0.9380   21.7640 C.ar      1 LIG        -0.0380 
      9 C10        -2.6050   -0.4600   22.0800 C.ar      1 LIG         0.2920 
     10 C21        -2.6390   -1.4080   21.0580 C.ar      1 LIG        -0.4470 
     11 C20        -2.9900   -2.7250   21.3360 C.ar      1 LIG         0.4730 
     12 N19        -3.2780   -3.0900   22.6000 N.ar      1 LIG        -0.6780 
     13 C18        -3.2110   -2.2140   23.6120 C.ar      1 LIG         0.4730 
     14 C17        -2.8520   -0.8950   23.3940 C.ar      1 LIG        -0.4470 
     15 C5         -1.1400    1.4870   22.5860 C.ar      1 LIG        -0.1600 
     16 C11        -3.6250    1.1960   19.7170 C.ar      1 LIG         0.0000 
     17 C16        -3.3100    1.1380   18.3760 C.ar      1 LIG        -0.1150 
     18 C15        -4.2310    0.6630   17.4700 C.ar      1 LIG         0.0000 
     19 C25        -3.9060    0.6010   16.1300 C.ar      1 LIG        -0.1150 
     20 C24        -4.8290    0.1180   15.2100 C.ar      1 LIG        -0.1150 
     21 C23        -6.0840   -0.3240   15.6300 C.ar      1 LIG        -0.1150 
     22 C22        -6.3930   -0.2340   16.9820 C.ar      1 LIG        -0.1150 
     23 C14        -5.4850    0.2560   17.8950 C.ar      1 LIG         0.0000 
     24 C13        -5.8030    0.2970   19.2370 C.ar      1 LIG        -0.1150 
     25 C12        -4.8760    0.7590   20.1540 C.ar      1 LIG        -0.1150 
     26 H31         0.1254    5.4168   22.6364 H         1 LIG         0.0600 
     27 H32         1.7071    5.0230   23.3069 H         1 LIG         0.0600 
     28 H33         1.3407    4.6013   21.6383 H         1 LIG         0.0600 
     29 H11         0.2426    2.4338   24.9558 H         1 LIG         0.0600 
     30 H12         1.5181    1.7887   23.9113 H         1 LIG         0.0600 
     31 H13         1.7361    3.3366   24.7231 H         1 LIG         0.0600 
     32 H21        -2.3834   -1.1429   20.0430 H         1 LIG         0.1550 
     33 H20        -3.0304   -3.4803   20.5663 H         1 LIG         0.0120 
     34 H18        -3.4389   -2.5778   24.6027 H         1 LIG         0.0120 
     35 H17        -2.7929   -0.2084   24.2258 H         1 LIG         0.1550 
     36 H5         -0.7648    0.9148   23.4211 H         1 LIG         0.1220 
     37 H16        -2.3339    1.4557   18.0369 H         1 LIG         0.1150 
     38 H25        -2.9352    0.9273   15.7848 H         1 LIG         0.1150 
     39 H24        -4.5597    0.0505   14.1674 H         1 LIG         0.1150 
     40 H23        -6.7953   -0.7254   14.9262 H         1 LIG         0.1150 
     41 H22        -7.3612   -0.5726   17.3196 H         1 LIG         0.1150 
     42 H13        -6.7728   -0.0320   19.5810 H         1 LIG         0.1150 
     43 H12        -5.1220    0.7844   21.2011 H         1 LIG         0.1150 
@<TRIPOS>BOND
     1    1    2 1    
     2    1   26 1    
     3    1   27 1    
     4    1   28 1    
     5    2    3 1    
     6    2    4 1    
     7    3   29 1    
     8    3   30 1    
     9    3   31 1    
    10    4    5 ar   
    11    4   15 ar   
    12    5    6 ar   
    13    6    7 ar   
    14    7    8 ar   
    15    7   16 1    
    16    8    9 1    
    17    8   15 ar   
    18    9   10 ar   
    19    9   14 ar   
    20   10   11 ar   
    21   10   32 1    
    22   11   12 ar   
    23   11   33 1    
    24   12   13 ar   
    25   13   14 ar   
    26   13   34 1    
    27   14   35 1    
    28   15   36 1    
    29   16   17 ar   
    30   16   25 ar   
    31   17   18 ar   
    32   17   37 1    
    33   18   19 ar   
    34   18   23 ar   
    35   19   20 ar   
    36   19   38 1    
    37   20   21 ar   
    38   20   39 1    
    39   21   22 ar   
    40   21   40 1    
    41   22   23 ar   
    42   22   41 1    
    43   23   24 ar   
    44   24   25 ar   
    45   24   42 1    
    46   25   43 1    
@<TRIPOS>SUBSTRUCTURE
     1 LIG         1 GROUP             0       ****    0 ROOT    
