@<TRIPOS>MOLECULE
:1eby_ligand
88   93    1
SMALL
USER_CHARGES


@<TRIPOS>ATOM
      1 C23         9.8440   24.2070    2.2410 C.ar      1 LIG        -0.0418 
      2 C24         9.2310   25.4050    1.7950 C.ar      1 LIG        -0.1150 
      3 C25         7.8250   25.5750    1.9120 C.ar      1 LIG        -0.1150 
      4 C26         7.0260   24.5420    2.4800 C.ar      1 LIG        -0.1150 
      5 C27         7.6380   23.3390    2.9290 C.ar      1 LIG        -0.1150 
      6 C28         9.0430   23.1720    2.8100 C.ar      1 LIG        -0.1150 
      7 C33        16.6170   22.1670    8.8460 C.ar      1 LIG        -0.0418 
      8 C34        15.8970   21.1820    9.5900 C.ar      1 LIG        -0.1150 
      9 C35        16.5680   20.0300   10.0940 C.ar      1 LIG        -0.1150 
     10 C36        17.9600   19.8590    9.8540 C.ar      1 LIG        -0.1150 
     11 C37        18.6810   20.8390    9.1140 C.ar      1 LIG        -0.1150 
     12 C38        18.0100   21.9900    8.6100 C.ar      1 LIG        -0.1150 
     13 C32        15.8900   23.4020    8.2880 C.3       1 LIG         0.1818 
     14 O31        14.7960   23.1160    7.3670 O.3       1 LIG        -0.4000 
     15 C9         15.1800   22.6850    6.0280 C.3       1 LIG         0.1700 
     16 C7         14.0630   23.0590    5.0310 C.3       1 LIG         0.2050 
     17 C5         13.5940   24.5130    5.1080 C.3       1 LIG         0.2050 
     18 C4         12.2210   24.7320    4.3560 C.3       1 LIG         0.1700 
     19 C2         11.0340   24.7260    5.3120 C.2       1 LIG         0.5000 
     20 O3         10.8180   23.7130    5.9610 O.2       1 LIG        -0.5000 
     21 N1         10.2610   25.8030    5.3600 N.am      1 LIG        -0.5000 
     22 O21        12.0380   23.6650    3.3570 O.3       1 LIG        -0.4000 
     23 C22        11.3620   24.0330    2.1260 C.3       1 LIG         0.1818 
     24 O6         14.6400   25.2940    4.4910 O.3       1 LIG        -0.6830 
     25 O8         14.5800   22.8360    3.6910 O.3       1 LIG        -0.6830 
     26 C10        15.3410   21.1990    5.9620 C.2       1 LIG         0.5000 
     27 O11        14.3540   20.5160    6.2110 O.2       1 LIG        -0.5000 
     28 N12        16.5050   20.7010    5.5790 N.am      1 LIG        -0.5000 
     29 C51        16.8700   19.3000    5.3590 C.3       1 LIG         0.2550 
     30 C52        16.7550   18.9200    3.8830 C.ar      1 LIG        -0.1150 
     31 C57        17.6770   17.9100    3.5290 C.ar      1 LIG        -0.1150 
     32 C53        15.8750   19.4460    2.8930 C.ar      1 LIG        -0.1150 
     33 C54        15.9380   18.9450    1.5610 C.ar      1 LIG        -0.1150 
     34 C55        16.8750   17.9240    1.2270 C.ar      1 LIG        -0.1150 
     35 C59        18.2830   18.7480    5.6730 C.3       1 LIG         0.2050 
     36 O60        19.2290   19.7990    5.3760 O.3       1 LIG        -0.6830 
     37 C56        17.7580   17.3950    2.2120 C.ar      1 LIG        -0.1150 
     38 C58        18.4980   17.5180    4.7450 C.3       1 LIG        -0.0050 
     39 C41         9.0290   26.0670    6.1350 C.3       1 LIG         0.2550 
     40 C42         9.2990   26.7620    7.4770 C.ar      1 LIG        -0.1150 
     41 C47         8.1960   27.5630    7.8780 C.ar      1 LIG        -0.1150 
     42 C43        10.4560   26.7020    8.3060 C.ar      1 LIG        -0.1150 
     43 C44        10.4930   27.4460    9.5260 C.ar      1 LIG        -0.1150 
     44 C45         9.3790   28.2450    9.9180 C.ar      1 LIG        -0.1150 
     45 C49         7.9050   26.9920    5.5960 C.3       1 LIG         0.2050 
     46 O50         8.5420   28.1100    4.9260 O.3       1 LIG        -0.6830 
     47 C46         8.2070   28.3130    9.0900 C.ar      1 LIG        -0.1150 
     48 C48         7.0940   27.4690    6.8390 C.3       1 LIG        -0.0050 
     49 H24         9.8305   26.1990    1.3761 H         1 LIG         0.1150 
     50 H25         7.3677   26.4898    1.5698 H         1 LIG         0.1150 
     51 H26         5.9576   24.6706    2.5719 H         1 LIG         0.1150 
     52 H27         7.0288   22.5609    3.3626 H         1 LIG         0.1150 
     53 H28         9.5086   22.2789    3.1857 H         1 LIG         0.1150 
     54 H34        14.8379   21.3047    9.7644 H         1 LIG         0.1150 
     55 H35        16.0170   19.2837   10.6470 H         1 LIG         0.1150 
     56 H36        18.4665   18.9822   10.2290 H         1 LIG         0.1150 
     57 H37        19.7263   20.7211    8.9069 H         1 LIG         0.1150 
     58 H38        18.5596   22.7224    8.0376 H         1 LIG         0.1150 
     59 H321       16.5827   24.1395    7.8812 H         1 LIG         0.0300 
     60 H322       15.4470   23.8030    9.1537 H         1 LIG         0.0300 
     61 H9         16.0962   23.1989    5.7416 H         1 LIG         0.0300 
     62 H7         13.1935   22.4210    5.1787 H         1 LIG         0.0600 
     63 H5         13.5012   24.8464    6.1425 H         1 LIG         0.0600 
     64 H4         12.2821   25.6717    3.8344 H         1 LIG         0.0300 
     65 HN1        10.5374   26.5640    4.7528 H         1 LIG         0.3000 
     66 H221       11.8216   24.9320    1.7140 H         1 LIG         0.0300 
     67 H222       11.5165   23.2691    1.3968 H         1 LIG         0.0300 
     68 HO6        15.0843   25.8219    5.1455 H         1 LIG         0.4180 
     69 HO8        14.7379   23.6881    3.2913 H         1 LIG         0.4180 
     70 HN12       17.2275   21.3763    5.3691 H         1 LIG         0.3000 
     71 H51        16.1380   18.6777    5.8654 H         1 LIG         0.0600 
     72 H53        15.1645   20.2200    3.1428 H         1 LIG         0.1150 
     73 H54        15.2896   19.3537    0.7996 H         1 LIG         0.1150 
     74 H55        17.0055   17.5725    0.2287 H         1 LIG         0.1150 
     75 H59        18.3975   18.4893    6.7261 H         1 LIG         0.0600 
     76 HO60       19.0778   20.5193    5.9695 H         1 LIG         0.4180 
     77 H56        18.4740   16.6258    1.9685 H         1 LIG         0.1150 
     78 H581       19.5462   17.3431    4.5023 H         1 LIG         0.0600 
     79 H582       18.0786   16.6115    5.1827 H         1 LIG         0.0600 
     80 H41         8.5792   25.1033    6.3776 H         1 LIG         0.0600 
     81 H43        11.3056   26.1011    8.0163 H         1 LIG         0.1150 
     82 H44        11.3749   27.4043   10.1470 H         1 LIG         0.1150 
     83 H45         9.4200   28.8039   10.8415 H         1 LIG         0.1150 
     84 H49         7.2728   26.4832    4.8680 H         1 LIG         0.0600 
     85 HO50        7.8659   28.6765    4.5795 H         1 LIG         0.4180 
     86 H46         7.3582   28.9172    9.3762 H         1 LIG         0.1150 
     87 H481        6.5896   28.4225    6.6783 H         1 LIG         0.0600 
     88 H482        6.3625   26.7231    7.1520 H         1 LIG         0.0600 
@<TRIPOS>BOND
     1    1    2 ar   
     2    1    6 ar   
     3    1   23 1    
     4    2    3 ar   
     5    2   49 1    
     6    3    4 ar   
     7    3   50 1    
     8    4    5 ar   
     9    4   51 1    
    10    5    6 ar   
    11    5   52 1    
    12    6   53 1    
    13    7    8 ar   
    14    7   12 ar   
    15    7   13 1    
    16    8    9 ar   
    17    8   54 1    
    18    9   10 ar   
    19    9   55 1    
    20   10   11 ar   
    21   10   56 1    
    22   11   12 ar   
    23   11   57 1    
    24   12   58 1    
    25   13   14 1    
    26   13   59 1    
    27   13   60 1    
    28   14   15 1    
    29   15   16 1    
    30   15   26 1    
    31   15   61 1    
    32   16   17 1    
    33   16   25 1    
    34   16   62 1    
    35   17   18 1    
    36   17   24 1    
    37   17   63 1    
    38   18   19 1    
    39   18   22 1    
    40   18   64 1    
    41   19   20 2    
    42   19   21 am   BACKBONE|DICT|INTERRES
    43   21   39 1    
    44   21   65 1    
    45   22   23 1    
    46   23   66 1    
    47   23   67 1    
    48   24   68 1    
    49   25   69 1    
    50   26   27 2    
    51   26   28 am   BACKBONE|DICT|INTERRES
    52   28   29 1    
    53   28   70 1    
    54   29   30 1    
    55   29   35 1    
    56   29   71 1    
    57   30   31 ar   
    58   30   32 ar   
    59   31   37 ar   
    60   31   38 1    
    61   32   33 ar   
    62   32   72 1    
    63   33   34 ar   
    64   33   73 1    
    65   34   37 ar   
    66   34   74 1    
    67   35   36 1    
    68   35   38 1    
    69   35   75 1    
    70   36   76 1    
    71   37   77 1    
    72   38   78 1    
    73   38   79 1    
    74   39   40 1    
    75   39   45 1    
    76   39   80 1    
    77   40   41 ar   
    78   40   42 ar   
    79   41   47 ar   
    80   41   48 1    
    81   42   43 ar   
    82   42   81 1    
    83   43   44 ar   
    84   43   82 1    
    85   44   47 ar   
    86   44   83 1    
    87   45   46 1    
    88   45   48 1    
    89   45   84 1    
    90   46   85 1    
    91   47   86 1    
    92   48   87 1    
    93   48   88 1    
@<TRIPOS>SUBSTRUCTURE
     1 LIG         1 GROUP             0       ****    0 ROOT    
