@<TRIPOS>MOLECULE
:3rsx_ligand
26   28    1
SMALL
USER_CHARGES


@<TRIPOS>ATOM
      1 C4         68.7880   50.1600    8.6480 C.ar      1 LIG         0.7341 
      2 C5         69.2030   49.0520    9.3910 C.ar      1 LIG        -0.1736 
      3 C6         69.9150   49.2400   10.5760 C.ar      1 LIG        -0.1673 
      4 C7         70.9380   50.7340   12.2170 C.2       1 LIG         0.0473 
      5 C8         70.5800   51.7230   13.0850 C.2       1 LIG        -0.0738 
      6 C10        71.9660   49.9850   12.6560 C.2       1 LIG        -0.3255 
      7 N12        68.0850   50.0010    7.5150 N.ar      1 LIG        -0.7311 
      8 C13        67.7600   48.7740    7.0550 C.ar      1 LIG         0.6855 
      9 C15        68.8890   47.7690    8.9420 C.ar      1 LIG         0.0486 
     10 C14        68.1580   47.6280    7.7560 C.ar      1 LIG        -0.4849 
     11 N16        67.0760   48.6570    5.9170 N.pl3     1 LIG        -0.9200 
     12 C3         69.0880   51.4450    9.0980 C.ar      1 LIG        -0.4407 
     13 C2         69.8070   51.6330   10.2810 C.ar      1 LIG        -0.0433 
     14 C1         70.2390   50.5320   11.0220 C.ar      1 LIG        -0.0506 
     15 C11        71.2760   51.8560   14.2250 C.2       1 LIG        -0.3255 
     16 S9         72.4190   50.6350   14.1680 S.3       1 LIG         0.0328 
     17 H6         70.2287   48.3813   11.1495 H         1 LIG         0.1528 
     18 H8         69.7542   52.3830   12.8630 H         1 LIG         0.1211 
     19 H10        72.4715   49.1389   12.2142 H         1 LIG         0.2618 
     20 H15        69.2068   46.8950    9.4893 H         1 LIG         0.1325 
     21 H14        67.9083   46.6443    7.3847 H         1 LIG         0.1970 
     22 H161       66.7889   47.7634    5.5363 H         1 LIG         0.3600 
     23 H162       66.9431   49.4619    5.3090 H         1 LIG         0.3600 
     24 H3         68.7535   52.2987    8.5265 H         1 LIG         0.2022 
     25 H2         70.0313   52.6408   10.5986 H         1 LIG         0.1388 
     26 H11        71.1883   52.5622   15.0292 H         1 LIG         0.2618 
@<TRIPOS>BOND
     1    1    2 ar   
     2    1    7 ar   
     3    1   12 ar   
     4    2    3 ar   
     5    2    9 ar   
     6    3   14 ar   
     7    3   17 1    
     8    4    5 1    
     9    4    6 2    
    10    4   14 1    
    11    5   15 2    
    12    5   18 1    
    13    6   16 1    
    14    6   19 1    
    15    7    8 ar   
    16    8   10 ar   
    17    8   11 1    
    18    9   10 ar   
    19    9   20 1    
    20   10   21 1    
    21   11   22 1    
    22   11   23 1    
    23   12   13 ar   
    24   12   24 1    
    25   13   14 ar   
    26   13   25 1    
    27   15   16 1    
    28   15   26 1    
@<TRIPOS>SUBSTRUCTURE
     1 LIG         1 GROUP             0       ****    0 ROOT    
