@<TRIPOS>MOLECULE
:3tsk_ligand
71   73    1
SMALL
USER_CHARGES


@<TRIPOS>ATOM
      1 O2          9.7400   26.2240    4.4400 O.2       1 LIG        -0.5000 
      2 S7          2.4460   22.3030    8.4120 S.3       1 LIG         0.0328 
      3 C11         8.5610   26.3170    4.3850 C.2       1 LIG         0.5000 
      4 C12         7.7730   25.1900    3.7690 C.3       1 LIG        -0.1200 
      5 C13         7.6830   23.8750    4.5200 C.3       1 LIG        -0.0050 
      6 C14         5.1640   24.2160    4.5080 C.ar      1 LIG        -0.1150 
      7 C15         4.8770   22.7090    6.7400 C.ar      1 LIG        -0.1150 
      8 C16         3.7230   23.2350    6.1920 C.ar      1 LIG         0.1072 
      9 C17         3.8940   24.0030    5.0500 C.ar      1 LIG        -0.1150 
     10 C18         2.3880   22.9330    6.8600 C.2       1 LIG        -0.1709 
     11 C19         1.0410   22.9600    6.6160 C.2       1 LIG        -0.0738 
     12 C20         0.2250   22.4620    7.6840 C.2       1 LIG         0.0473 
     13 C21        -1.2390   22.4170    7.7510 C.ar      1 LIG         0.0000 
     14 C22        -1.8500   21.2850    8.1820 C.ar      1 LIG        -0.1150 
     15 C23        -3.2140   21.2120    8.2760 C.ar      1 LIG        -0.1150 
     16 C24        -3.9630   22.3130    7.9830 C.ar      1 LIG        -0.1150 
     17 C25        -3.3530   23.4680    7.5780 C.ar      1 LIG        -0.1150 
     18 C26        -1.9860   23.5290    7.4710 C.ar      1 LIG        -0.1150 
     19 C27         6.3030   23.6610    5.0810 C.ar      1 LIG        -0.1150 
     20 C28         6.1420   22.9080    6.2190 C.ar      1 LIG        -0.1150 
     21 C29         0.8590   22.0460    8.8030 C.2       1 LIG        -0.3255 
     22 N2          7.8800   27.3640    4.8260 N.am      1 LIG        -0.5000 
     23 C7          8.4140   28.5690    5.4320 C.3       1 LIG         0.1400 
     24 C6          7.7580   28.8110    6.7840 C.2       1 LIG         0.5000 
     25 O1          6.6890   28.3540    7.1000 O.2       1 LIG        -0.5000 
     26 C8          8.2420   29.7180    4.4090 C.3       1 LIG        -0.1200 
     27 C9          9.5000   30.5670    4.1040 C.3       1 LIG        -0.1200 
     28 C10         9.5690   31.4830    2.8770 C.2       1 LIG         0.5000 
     29 O4E         8.8960   31.3830    1.8950 O.2       1 LIG        -0.5000 
     30 N4         10.4770   32.4300    2.9030 N.am      1 LIG        -0.7600 
     31 N1          8.4220   29.5400    7.6470 N.am      1 LIG        -0.5000 
     32 C2          7.8550   29.7800    8.9520 C.3       1 LIG         0.1400 
     33 C1          6.5850   30.5830    8.9020 C.2       1 LIG         0.5000 
     34 O9          6.4480   31.5120    8.1780 O.2       1 LIG        -0.5000 
     35 C3          8.8210   30.4380    9.8880 C.3       1 LIG        -0.1200 
     36 C4          8.9700   29.8870   11.2870 C.3       1 LIG        -0.2200 
     37 C5          9.8300   30.4360   12.3560 C.2       1 LIG         0.7000 
     38 O8E         9.8160   29.8460   13.4300 O.co2     1 LIG        -0.8000 
     39 O8         10.5260   31.4550   12.2140 O.co2     1 LIG        -0.8000 
     40 N9          5.6170   30.1980    9.6890 N.am      1 LIG        -0.7600 
     41 H121        8.3721   24.9426    2.8907 H         1 LIG         0.0600 
     42 H122        6.8908   25.5938    3.2931 H         1 LIG         0.0600 
     43 H131        8.4311   23.8195    5.3130 H         1 LIG         0.0600 
     44 H132        7.8784   23.0462    3.8575 H         1 LIG         0.0600 
     45 H14         5.1607   24.7721    3.5892 H         1 LIG         0.1150 
     46 H15         4.8196   22.0012    7.5454 H         1 LIG         0.1150 
     47 H17         3.0283   24.4292    4.5719 H         1 LIG         0.1150 
     48 H19         0.6058   23.3203    5.6953 H         1 LIG         0.1211 
     49 H22        -1.2554   20.4236    8.4430 H         1 LIG         0.1150 
     50 H23        -3.6923   20.2986    8.5977 H         1 LIG         0.1150 
     51 H24        -5.0393   22.2702    8.0628 H         1 LIG         0.1150 
     52 H25        -3.9518   24.3344    7.3558 H         1 LIG         0.1150 
     53 H26        -1.5092   24.4462    7.1569 H         1 LIG         0.1150 
     54 H28         6.9885   22.4958    6.7375 H         1 LIG         0.1150 
     55 H29         0.5016   21.5857    9.7086 H         1 LIG         0.2618 
     56 HN2         6.8746   27.3316    4.7291 H         1 LIG         0.3000 
     57 H7          9.4758   28.4161    5.6140 H         1 LIG         0.0600 
     58 H81         7.4353   30.3832    4.7220 H         1 LIG         0.0600 
     59 H82         7.8981   29.3126    3.4553 H         1 LIG         0.0600 
     60 H91        10.3601   29.9076    4.0522 H         1 LIG         0.0600 
     61 H92         9.6898   31.1828    4.9845 H         1 LIG         0.0600 
     62 H41        10.5692   33.0493    2.1112 H         1 LIG         0.3800 
     63 H42        11.0795   32.5354    3.7061 H         1 LIG         0.3800 
     64 HN1         9.3363   29.9072    7.4226 H         1 LIG         0.3000 
     65 H2          7.6327   28.7984    9.3810 H         1 LIG         0.0600 
     66 H31         8.6416   31.5135    9.9556 H         1 LIG         0.0600 
     67 H32         9.8182   30.3789    9.4478 H         1 LIG         0.0600 
     68 H41         9.2585   28.8397   11.1885 H         1 LIG         0.0600 
     69 H42         7.9685   29.8588   11.7184 H         1 LIG         0.0600 
     70 H91         4.7450   30.7059    9.6889 H         1 LIG         0.3800 
     71 H92         5.7411   29.3984   10.2929 H         1 LIG         0.3800 
@<TRIPOS>BOND
     1    1    3 2    
     2    2   10 1    
     3    2   21 1    
     4    3    4 1    
     5    3   22 am   BACKBONE|DICT|INTERRES
     6    4    5 1    
     7    4   41 1    
     8    4   42 1    
     9    5   19 1    
    10    5   43 1    
    11    5   44 1    
    12    6    9 ar   
    13    6   19 ar   
    14    6   45 1    
    15    7    8 ar   
    16    7   20 ar   
    17    7   46 1    
    18    8    9 ar   
    19    8   10 1    
    20    9   47 1    
    21   10   11 2    
    22   11   12 1    
    23   11   48 1    
    24   12   13 1    
    25   12   21 2    
    26   13   14 ar   
    27   13   18 ar   
    28   14   15 ar   
    29   14   49 1    
    30   15   16 ar   
    31   15   50 1    
    32   16   17 ar   
    33   16   51 1    
    34   17   18 ar   
    35   17   52 1    
    36   18   53 1    
    37   19   20 ar   
    38   20   54 1    
    39   21   55 1    
    40   22   23 1    
    41   22   56 1    
    42   23   24 1    
    43   23   26 1    
    44   23   57 1    
    45   24   25 2    
    46   24   31 am   BACKBONE|DICT|INTERRES
    47   26   27 1    
    48   26   58 1    
    49   26   59 1    
    50   27   28 1    
    51   27   60 1    
    52   27   61 1    
    53   28   29 2    
    54   28   30 am   BACKBONE|DICT|INTERRES
    55   30   62 1    
    56   30   63 1    
    57   31   32 1    
    58   31   64 1    
    59   32   33 1    
    60   32   35 1    
    61   32   65 1    
    62   33   34 2    
    63   33   40 am   BACKBONE|DICT|INTERRES
    64   35   36 1    
    65   35   66 1    
    66   35   67 1    
    67   36   37 1    
    68   36   68 1    
    69   36   69 1    
    70   37   38 2    
    71   37   39 1    
    72   40   70 1    
    73   40   71 1    
@<TRIPOS>SUBSTRUCTURE
     1 LIG         1 GROUP             0       ****    0 ROOT    
