@<TRIPOS>MOLECULE
:3acw_ligand
43   46    1
SMALL
USER_CHARGES


@<TRIPOS>ATOM
      1 OAA        54.8850   12.3290   53.3370 O.3       1 LIG        -0.6830 
      2 CAB        57.7110   21.0050   53.2580 C.ar      1 LIG        -0.1150 
      3 CAC        57.9630   20.1180   54.3060 C.ar      1 LIG        -0.1150 
      4 CAD        57.1980   20.4670   52.0800 C.ar      1 LIG        -0.1150 
      5 CAE        57.6930   18.7580   54.1550 C.ar      1 LIG        -0.1150 
      6 CAF        56.9110   19.1060   51.9570 C.ar      1 LIG        -0.1150 
      7 CAG        56.3040   16.3200   51.7220 C.ar      1 LIG        -0.1150 
      8 CAH        57.1270   15.9370   53.8960 C.ar      1 LIG        -0.1150 
      9 CAI        56.0250   14.9650   51.5700 C.ar      1 LIG        -0.1150 
     10 CAJ        56.8350   14.5770   53.7630 C.ar      1 LIG        -0.1150 
     11 CAK        58.2670   11.6770   51.8540 C.3       1 LIG        -0.1200 
     12 CAL        56.7100   10.2160   52.9660 C.3       1 LIG        -0.1200 
     13 CAM        57.7060   11.0780   50.5680 C.3       1 LIG         0.1500 
     14 CAN        55.9580    9.8540   51.6870 C.3       1 LIG         0.1500 
     15 CAO        55.5750   12.1650   51.0450 C.3       1 LIG         0.1500 
     16 CAP        57.1490   18.2100   52.9940 C.ar      1 LIG         0.0000 
     17 CAQ        56.8700   16.8530   52.8770 C.ar      1 LIG         0.0000 
     18 CAR        56.2990   14.0520   52.5850 C.ar      1 LIG        -0.1150 
     19 CAS        57.1380   11.6770   52.8780 C.3       1 LIG        -0.0600 
     20 NAT        56.2470   10.8960   50.6860 N.4       1 LIG        -0.1000 
     21 CAU        55.9840   12.5840   52.4560 C.3       1 LIG         0.3800 
     22 HOAA       54.1557   12.8711   53.0744 H         1 LIG         0.4180 
     23 HAB        57.9077   22.0629   53.3556 H         1 LIG         0.1150 
     24 HAC        58.3276   20.5268   55.2309 H         1 LIG         0.1150 
     25 HAD        56.9992   21.1267   51.2513 H         1 LIG         0.1150 
     26 HAE        57.9111   18.1616   55.0239 H         1 LIG         0.1150 
     27 HAF        56.5123   18.8171   51.0003 H         1 LIG         0.1150 
     28 HAG        55.9807   16.9316   50.9006 H         1 LIG         0.1150 
     29 HAH        57.5552   16.2209   54.8422 H         1 LIG         0.1150 
     30 HAI        55.5217   14.7077   50.6551 H         1 LIG         0.1150 
     31 HAJ        57.0403   13.9313   54.6028 H         1 LIG         0.1150 
     32 HAK1       58.6049   12.6990   51.6942 H         1 LIG         0.0600 
     33 HAK2       59.1316   11.1037   52.1877 H         1 LIG         0.0600 
     34 HAL1       57.5440    9.5424   53.1705 H         1 LIG         0.0600 
     35 HAL2       56.0055   10.1540   53.7819 H         1 LIG         0.0600 
     36 HAM1       58.1853   10.1287   50.3368 H         1 LIG         0.0600 
     37 HAM2       57.9193   11.7412   49.7314 H         1 LIG         0.0600 
     38 HAN1       54.8820    9.8039   51.8627 H         1 LIG         0.0600 
     39 HAN2       56.2524    8.8731   51.3214 H         1 LIG         0.0600 
     40 HAO1       54.4931   12.1049   50.9126 H         1 LIG         0.0600 
     41 HAO2       55.9524   12.8127   50.2637 H         1 LIG         0.0600 
     42 HAS        57.4969   11.9622   53.8602 H         1 LIG         0.0600 
     43 HNAT       55.8963   10.5877   49.7854 H         1 LIG         0.2900 
@<TRIPOS>BOND
     1    1   21 1    
     2    1   22 1    
     3    2    3 ar   
     4    2    4 ar   
     5    2   23 1    
     6    3    5 ar   
     7    3   24 1    
     8    4    6 ar   
     9    4   25 1    
    10    5   16 ar   
    11    5   26 1    
    12    6   16 ar   
    13    6   27 1    
    14    7    9 ar   
    15    7   17 ar   
    16    7   28 1    
    17    8   10 ar   
    18    8   17 ar   
    19    8   29 1    
    20    9   18 ar   
    21    9   30 1    
    22   10   18 ar   
    23   10   31 1    
    24   11   13 1    
    25   11   19 1    
    26   11   32 1    
    27   11   33 1    
    28   12   14 1    
    29   12   19 1    
    30   12   34 1    
    31   12   35 1    
    32   13   20 1    
    33   13   36 1    
    34   13   37 1    
    35   14   20 1    
    36   14   38 1    
    37   14   39 1    
    38   15   20 1    
    39   15   21 1    
    40   15   40 1    
    41   15   41 1    
    42   16   17 1    
    43   18   21 1    
    44   19   21 1    
    45   19   42 1    
    46   20   43 1    
@<TRIPOS>SUBSTRUCTURE
     1 LIG         1 GROUP             0       ****    0 ROOT    
