@<TRIPOS>MOLECULE
:2vw5_ligand
78   79    1
SMALL
USER_CHARGES


@<TRIPOS>ATOM
      1 O37        40.9960   -5.2790   41.7570 O.2       1 LIG        -0.5000 
      2 C21        41.0020   -5.7550   40.6250 C.2       1 LIG         0.5567 
      3 C20        41.4180   -7.1450   40.5150 C.2       1 LIG        -0.0567 
      4 C36        42.7470   -7.5080   41.1090 C.3       1 LIG        -0.1800 
      5 C19        40.5640   -8.0530   39.9520 C.2       1 LIG        -0.1150 
      6 C18        40.7860   -9.5190   39.7600 C.3       1 LIG        -0.1200 
      7 C17        40.0280   -9.9160   38.4900 C.3       1 LIG        -0.1200 
      8 C16        38.5180  -10.0610   38.6600 C.3       1 LIG        -0.0600 
      9 C35        38.1500  -11.0510   39.7780 C.3       1 LIG        -0.1800 
     10 N22        40.6430   -4.9780   39.5910 N.am      1 LIG        -0.3850 
     11 C3         40.8770   -5.2320   38.2610 C.ar      1 LIG         0.0850 
     12 C4         39.8760   -4.9220   37.3560 C.ar      1 LIG        -0.1150 
     13 C5         40.0430   -5.1480   35.9880 C.ar      1 LIG         0.1500 
     14 O36        38.9920   -4.8630   35.1630 O.3       1 LIG        -0.5850 
     15 C6         41.2240   -5.7010   35.4980 C.ar      1 LIG        -0.1150 
     16 C1         42.2460   -6.0330   36.4130 C.ar      1 LIG        -0.1150 
     17 C2         42.0690   -5.7740   37.7770 C.ar      1 LIG        -0.1150 
     18 C7         43.5440   -6.6740   35.9660 C.3       1 LIG        -0.0050 
     19 C8         43.4590   -8.2170   35.8600 C.3       1 LIG        -0.0600 
     20 C25        43.2910   -8.9200   37.2190 C.3       1 LIG        -0.1800 
     21 C9         42.3660   -8.6630   34.8460 C.3       1 LIG        -0.1200 
     22 C10        42.1310  -10.1630   34.7050 C.3       1 LIG         0.1700 
     23 O26        43.3610  -10.8360   34.3610 O.3       1 LIG        -0.4000 
     24 C27        43.3820  -12.2070   34.6920 C.3       1 LIG         0.1100 
     25 C11        41.0990  -10.4920   33.6260 C.3       1 LIG         0.2050 
     26 O28        41.6470   -9.9950   32.3850 O.3       1 LIG        -0.6830 
     27 C12        39.7420   -9.8420   33.9210 C.3       1 LIG        -0.0600 
     28 C29        38.7820  -10.2650   32.8140 C.3       1 LIG        -0.1800 
     29 C13        39.1360  -10.3870   35.2100 C.2       1 LIG        -0.1150 
     30 C14        38.3980   -9.7100   36.1370 C.2       1 LIG        -0.0690 
     31 C30        38.0460   -8.2490   36.0160 C.3       1 LIG        -0.1800 
     32 C15        37.8750  -10.4970   37.3180 C.3       1 LIG         0.2890 
     33 O31        36.4860  -10.2250   37.4330 O.3       1 LIG        -0.3300 
     34 C32        35.5900  -11.0430   36.6650 C.2       1 LIG         0.6325 
     35 O33        36.0620  -11.8940   35.9290 O.2       1 LIG        -0.4970 
     36 N34        34.3080  -10.7740   36.8570 N.am      1 LIG        -0.8839 
     37 H361       42.9718   -8.5702   41.0497 H         1 LIG         0.0600 
     38 H362       43.5475   -6.9699   40.6013 H         1 LIG         0.0600 
     39 H363       42.7773   -7.2365   42.1644 H         1 LIG         0.0600 
     40 H19        39.6057   -7.6824   39.6175 H         1 LIG         0.1150 
     41 H181       40.4256  -10.0471   40.6293 H         1 LIG         0.0600 
     42 H182       41.8434   -9.7540   39.6511 H         1 LIG         0.0600 
     43 H171       40.4282  -10.8703   38.1448 H         1 LIG         0.0600 
     44 H172       40.2722   -9.1963   37.7106 H         1 LIG         0.0600 
     45 H16        38.0975   -9.0905   38.9243 H         1 LIG         0.0600 
     46 H351       37.0953  -11.3245   39.7449 H         1 LIG         0.0600 
     47 H352       38.7352  -11.9657   39.7046 H         1 LIG         0.0600 
     48 H353       38.3268  -10.6277   40.7645 H         1 LIG         0.0600 
     49 HN22       40.1957   -4.0991   39.8071 H         1 LIG         0.3000 
     50 H4         38.9515   -4.4932   37.7079 H         1 LIG         0.1150 
     51 HO36       39.0716   -5.2440   34.2959 H         1 LIG         0.4350 
     52 H6         41.3425   -5.8914   34.4414 H         1 LIG         0.1150 
     53 H2         42.8588   -6.0341   38.4641 H         1 LIG         0.1150 
     54 H71        44.3426   -6.4261   36.6604 H         1 LIG         0.0600 
     55 H72        43.8304   -6.2499   35.0028 H         1 LIG         0.0600 
     56 H8         44.4170   -8.5557   35.4631 H         1 LIG         0.0600 
     57 H251       43.3022  -10.0050   37.1380 H         1 LIG         0.0600 
     58 H252       44.1013   -8.6461   37.8951 H         1 LIG         0.0600 
     59 H253       42.3662   -8.6132   37.6929 H         1 LIG         0.0600 
     60 H91        42.5912   -8.2068   33.8826 H         1 LIG         0.0600 
     61 H92        41.4274   -8.2384   35.1858 H         1 LIG         0.0600 
     62 H10        41.7716  -10.5491   35.6592 H         1 LIG         0.0300 
     63 H271       44.3629  -12.6165   34.4526 H         1 LIG         0.0300 
     64 H272       43.2074  -12.3641   35.7572 H         1 LIG         0.0300 
     65 H273       42.6525  -12.7883   34.1301 H         1 LIG         0.0300 
     66 H11        40.9598  -11.5686   33.5306 H         1 LIG         0.0600 
     67 HO28       42.4779  -10.4275   32.2481 H         1 LIG         0.4180 
     68 H12        39.8182   -8.7588   33.9022 H         1 LIG         0.0600 
     69 H291       37.9189   -9.6029   32.8213 H         1 LIG         0.0600 
     70 H292       39.2223  -10.2411   31.8244 H         1 LIG         0.0600 
     71 H293       38.4216  -11.2846   32.9587 H         1 LIG         0.0600 
     72 H13        39.3092  -11.4419   35.3720 H         1 LIG         0.1150 
     73 H301       38.3992   -7.6975   36.8871 H         1 LIG         0.0600 
     74 H302       38.4526   -7.7628   35.1342 H         1 LIG         0.0600 
     75 H303       36.9681   -8.1375   35.9608 H         1 LIG         0.0600 
     76 H15        38.0725  -11.5607   37.1787 H         1 LIG         0.0300 
     77 H341       33.6009  -11.3190   36.3632 H         1 LIG         0.4142 
     78 H342       34.0670  -10.0388   37.5037 H         1 LIG         0.4142 
@<TRIPOS>BOND
     1    1    2 2    
     2    2    3 1    
     3    2   10 am   BACKBONE|DICT|INTERRES
     4    3    4 1    
     5    3    5 2    
     6    4   37 1    
     7    4   38 1    
     8    4   39 1    
     9    5    6 1    
    10    5   40 1    
    11    6    7 1    
    12    6   41 1    
    13    6   42 1    
    14    7    8 1    
    15    7   43 1    
    16    7   44 1    
    17    8    9 1    
    18    8   32 1    
    19    8   45 1    
    20    9   46 1    
    21    9   47 1    
    22    9   48 1    
    23   10   11 1    
    24   10   49 1    
    25   11   12 ar   
    26   11   17 ar   
    27   12   13 ar   
    28   12   50 1    
    29   13   14 1    
    30   13   15 ar   
    31   14   51 1    
    32   15   16 ar   
    33   15   52 1    
    34   16   17 ar   
    35   16   18 1    
    36   17   53 1    
    37   18   19 1    
    38   18   54 1    
    39   18   55 1    
    40   19   20 1    
    41   19   21 1    
    42   19   56 1    
    43   20   57 1    
    44   20   58 1    
    45   20   59 1    
    46   21   22 1    
    47   21   60 1    
    48   21   61 1    
    49   22   23 1    
    50   22   25 1    
    51   22   62 1    
    52   23   24 1    
    53   24   63 1    
    54   24   64 1    
    55   24   65 1    
    56   25   26 1    
    57   25   27 1    
    58   25   66 1    
    59   26   67 1    
    60   27   28 1    
    61   27   29 1    
    62   27   68 1    
    63   28   69 1    
    64   28   70 1    
    65   28   71 1    
    66   29   30 2    
    67   29   72 1    
    68   30   31 1    
    69   30   32 1    
    70   31   73 1    
    71   31   74 1    
    72   31   75 1    
    73   32   33 1    
    74   32   76 1    
    75   33   34 1    
    76   34   35 2    
    77   34   36 am   BACKBONE|DICT|INTERRES
    78   36   77 1    
    79   36   78 1    
@<TRIPOS>SUBSTRUCTURE
     1 LIG         1 GROUP             0       ****    0 ROOT    
