@<TRIPOS>MOLECULE
:3e93_ligand
70   75    1
SMALL
USER_CHARGES


@<TRIPOS>ATOM
      1 O25        41.0000   29.8000   36.2000 O.2       1 LIG        -0.5000 
      2 C22        40.1650   29.4840   35.3570 C.2       1 LIG         0.6150 
      3 N24        39.3020   28.4420   35.5360 N.am      1 LIG        -0.3850 
      4 C26        39.2780   27.5910   36.6470 C.ar      1 LIG         0.0850 
      5 C27        39.5450   27.9960   37.9890 C.ar      1 LIG        -0.1150 
      6 C29        39.5250   27.0920   39.0830 C.ar      1 LIG         0.2100 
      7 C32        39.2210   25.7450   38.7730 C.ar      1 LIG        -0.1150 
      8 C30        38.9480   25.3350   37.4620 C.ar      1 LIG        -0.1150 
      9 C28        38.9790   26.2530   36.4030 C.ar      1 LIG        -0.1150 
     10 N31        39.8530   27.4950   40.3960 N.pl3     1 LIG        -0.6300 
     11 C33        40.4560   28.8390   40.5990 C.3       1 LIG         0.0900 
     12 C35        40.3240   29.3880   42.0340 C.3       1 LIG         0.1400 
     13 O37        40.7020   28.3600   42.9180 O.3       1 LIG        -0.4000 
     14 C36        39.7690   27.2960   42.9390 C.3       1 LIG         0.1400 
     15 C34        39.7280   26.5750   41.5720 C.3       1 LIG         0.0900 
     16 C19        40.0370   30.3310   34.1470 C.ar      1 LIG        -0.1150 
     17 C23        38.8300   30.5450   33.4680 C.ar      1 LIG        -0.1150 
     18 C20        38.8000   31.3890   32.3550 C.ar      1 LIG        -0.1150 
     19 C18        39.9600   32.0220   31.9080 C.ar      1 LIG        -0.1150 
     20 C21        39.8990   32.9340   30.6860 C.3       1 LIG        -0.0650 
     21 C15        41.1550   31.8060   32.5980 C.ar      1 LIG         0.0000 
     22 C17        41.2020   30.9790   33.7030 C.ar      1 LIG        -0.1150 
     23 C12        42.3860   32.4650   32.1310 C.ar      1 LIG         0.0000 
     24 C9         43.2440   31.7670   31.2830 C.ar      1 LIG        -0.1150 
     25 C4         44.4020   32.3910   30.8140 C.ar      1 LIG        -0.1150 
     26 C1         44.6680   33.7200   31.2190 C.ar      1 LIG        -0.2052 
     27 C3         43.8040   34.3760   32.0510 C.ar      1 LIG         0.2822 
     28 O8         44.3090   35.6250   32.2690 O.3       1 LIG        -0.1220 
     29 C7         42.6640   33.7780   32.5110 C.ar      1 LIG        -0.1150 
     30 C2         45.7300   34.5770   30.9160 C.2       1 LIG         0.3430 
     31 N6         45.4450   35.7350   31.5930 N.2       1 LIG        -0.4130 
     32 C5         46.9380   34.2910   30.0510 C.3       1 LIG         0.0550 
     33 C10        47.9210   33.3110   30.7360 C.3       1 LIG        -0.1200 
     34 C13        48.9430   32.8140   29.7150 C.3       1 LIG         0.1700 
     35 N16        49.7120   33.9080   29.1010 N.4       1 LIG        -0.2000 
     36 C14        48.9620   35.1390   28.7590 C.3       1 LIG         0.1700 
     37 C11        47.7790   35.5290   29.6890 C.3       1 LIG        -0.1200 
     38 HN24       38.7002   28.1887   34.7597 H         1 LIG         0.3000 
     39 H27        39.7508   29.0397   38.1324 H         1 LIG         0.1150 
     40 H32        39.2107   24.9909   39.5448 H         1 LIG         0.1150 
     41 H30        38.7269   24.2971   37.2625 H         1 LIG         0.1150 
     42 H28        38.7829   25.9077   35.3990 H         1 LIG         0.1150 
     43 H331       40.0190   29.6026   39.9656 H         1 LIG         0.0600 
     44 H332       41.5103   28.7510   40.3480 H         1 LIG         0.0600 
     45 H351       39.3062   29.7239   42.2399 H         1 LIG         0.0300 
     46 H352       40.9827   30.2446   42.1679 H         1 LIG         0.0300 
     47 H361       38.7805   27.6787   43.1991 H         1 LIG         0.0300 
     48 H362       40.0447   26.5895   43.7222 H         1 LIG         0.0300 
     49 H341       40.5904   25.9092   41.5214 H         1 LIG         0.0600 
     50 H342       38.8612   25.9286   41.4978 H         1 LIG         0.0600 
     51 H23        37.9340   30.0490   33.7751 H         1 LIG         0.1150 
     52 H20        37.8655   31.5421   31.8358 H         1 LIG         0.1150 
     53 H211       40.6410   32.6494   29.9397 H         1 LIG         0.0600 
     54 H212       38.9138   32.9129   30.2195 H         1 LIG         0.0600 
     55 H213       40.0921   33.9649   30.9790 H         1 LIG         0.0600 
     56 H17        42.1452   30.8268   34.2061 H         1 LIG         0.1150 
     57 H9         43.0164   30.7533   30.9866 H         1 LIG         0.1150 
     58 H4         45.0784   31.8660   30.1556 H         1 LIG         0.1150 
     59 H7         42.0112   34.3010   33.1891 H         1 LIG         0.1150 
     60 H5         46.5764   33.8410   29.1247 H         1 LIG         0.0600 
     61 H101       47.3792   32.4407   31.1001 H         1 LIG         0.0600 
     62 H102       48.4038   33.7671   31.6020 H         1 LIG         0.0600 
     63 H131       48.4307   32.2702   28.9198 H         1 LIG         0.0600 
     64 H132       49.6351   32.1099   30.1777 H         1 LIG         0.0600 
     65 H161       50.1961   33.5656   28.2828 H         1 LIG         0.3100 
     66 H162       50.4059   34.1802   29.7834 H         1 LIG         0.3100 
     67 H141       48.5630   35.0553   27.7668 H         1 LIG         0.0600 
     68 H142       49.6718   35.9648   28.7057 H         1 LIG         0.0600 
     69 H111       48.1771   35.9690   30.6008 H         1 LIG         0.0600 
     70 H112       47.1681   36.2860   29.2088 H         1 LIG         0.0600 
@<TRIPOS>BOND
     1    1    2 2    
     2    2    3 am   BACKBONE|DICT|INTERRES
     3    2   16 1    
     4    3    4 1    
     5    3   38 1    
     6    4    5 ar   
     7    4    9 ar   
     8    5    6 ar   
     9    5   39 1    
    10    6    7 ar   
    11    6   10 1    
    12    7    8 ar   
    13    7   40 1    
    14    8    9 ar   
    15    8   41 1    
    16    9   42 1    
    17   10   11 1    
    18   10   15 1    
    19   11   12 1    
    20   11   43 1    
    21   11   44 1    
    22   12   13 1    
    23   12   45 1    
    24   12   46 1    
    25   13   14 1    
    26   14   15 1    
    27   14   47 1    
    28   14   48 1    
    29   15   49 1    
    30   15   50 1    
    31   16   17 ar   
    32   16   22 ar   
    33   17   18 ar   
    34   17   51 1    
    35   18   19 ar   
    36   18   52 1    
    37   19   20 1    
    38   19   21 ar   
    39   20   53 1    
    40   20   54 1    
    41   20   55 1    
    42   21   22 ar   
    43   21   23 1    
    44   22   56 1    
    45   23   24 ar   
    46   23   29 ar   
    47   24   25 ar   
    48   24   57 1    
    49   25   26 ar   
    50   25   58 1    
    51   26   27 ar   
    52   26   30 1    
    53   27   28 1    
    54   27   29 ar   
    55   28   31 1    
    56   29   59 1    
    57   30   31 2    
    58   30   32 1    
    59   32   33 1    
    60   32   37 1    
    61   32   60 1    
    62   33   34 1    
    63   33   61 1    
    64   33   62 1    
    65   34   35 1    
    66   34   63 1    
    67   34   64 1    
    68   35   36 1    
    69   35   65 1    
    70   35   66 1    
    71   36   37 1    
    72   36   67 1    
    73   36   68 1    
    74   37   69 1    
    75   37   70 1    
@<TRIPOS>SUBSTRUCTURE
     1 LIG         1 GROUP             0       ****    0 ROOT    
