@<TRIPOS>MOLECULE
:4ih7_ligand
34   35    1
SMALL
USER_CHARGES


@<TRIPOS>ATOM
      1 O         -10.7330    6.0850    9.9460 O.2       1 LIG        -0.5000 
      2 C13       -11.2320    6.8760   10.7520 C.ar      1 LIG         0.5567 
      3 N         -12.3290    6.4770   11.5130 N.pl3     1 LIG        -0.3513 
      4 C12       -12.9650    7.2550   12.4330 C.ar      1 LIG        -0.0637 
      5 C11       -12.5530    8.5250   12.6690 C.ar      1 LIG        -0.1150 
      6 C10       -11.4540    9.0310   11.9390 C.ar      1 LIG        -0.1150 
      7 C9        -10.7940    8.2620   11.0070 C.ar      1 LIG        -0.0567 
      8 C8         -9.6510    8.8130   10.2280 C.ar      1 LIG         0.0000 
      9 C7         -9.5770    8.6450    8.8450 C.ar      1 LIG        -0.1150 
     10 C6         -8.4970    9.1470    8.1350 C.ar      1 LIG        -0.1150 
     11 C5         -7.4850    9.8290    8.7960 C.ar      1 LIG        -0.1150 
     12 C14        -8.6330    9.5110   10.8780 C.ar      1 LIG        -0.1150 
     13 C4         -7.5400   10.0280   10.1750 C.ar      1 LIG        -0.1150 
     14 C1         -6.4060   10.7630   10.9080 C.3       1 LIG         0.1150 
     15 C3         -6.9030   11.4180   12.2040 C.3       1 LIG        -0.1800 
     16 C2         -5.8120   11.8860   10.0410 C.3       1 LIG        -0.1800 
     17 C          -5.2880    9.7690   11.2810 C.3       1 LIG        -0.1800 
     18 HN        -12.6845    5.5360   11.3911 H         1 LIG         0.3000 
     19 H12       -13.7840    6.7707   12.9429 H         1 LIG         0.1150 
     20 H11       -13.0249    9.1254   13.4185 H         1 LIG         0.1150 
     21 H10       -11.1335   10.0478   12.1031 H         1 LIG         0.1150 
     22 H7        -10.3568    8.1224    8.3108 H         1 LIG         0.1150 
     23 H6         -8.4399    9.0032    7.0660 H         1 LIG         0.1150 
     24 H5         -6.6538   10.1806    8.2064 H         1 LIG         0.1150 
     25 H14        -8.7023    9.6164   11.9491 H         1 LIG         0.1150 
     26 H31        -6.1708   12.0994   12.6336 H         1 LIG         0.0600 
     27 H32        -7.8031   11.9887   12.0193 H         1 LIG         0.0600 
     28 H33        -7.1314   10.6858   12.9791 H         1 LIG         0.0600 
     29 H21        -5.0626   12.4606   10.5833 H         1 LIG         0.0600 
     30 H22        -5.3196   11.5224    9.1401 H         1 LIG         0.0600 
     31 H23        -6.5917   12.5883    9.7524 H         1 LIG         0.0600 
     32 HXT1       -4.4625   10.2031   11.8292 H         1 LIG         0.0600 
     33 HXT2       -5.6797    8.9566   11.8945 H         1 LIG         0.0600 
     34 HXT3       -4.8663    9.3125   10.3854 H         1 LIG         0.0600 
@<TRIPOS>BOND
     1    1    2 2    
     2    2    3 ar   
     3    2    7 ar   
     4    3    4 ar   
     5    3   18 1    
     6    4    5 ar   
     7    4   19 1    
     8    5    6 ar   
     9    5   20 1    
    10    6    7 ar   
    11    6   21 1    
    12    7    8 1    
    13    8    9 ar   
    14    8   12 ar   
    15    9   10 ar   
    16    9   22 1    
    17   10   11 ar   
    18   10   23 1    
    19   11   13 ar   
    20   11   24 1    
    21   12   13 ar   
    22   12   25 1    
    23   13   14 1    
    24   14   15 1    
    25   14   16 1    
    26   14   17 1    
    27   15   26 1    
    28   15   27 1    
    29   15   28 1    
    30   16   29 1    
    31   16   30 1    
    32   16   31 1    
    33   17   32 1    
    34   17   33 1    
    35   17   34 1    
@<TRIPOS>SUBSTRUCTURE
     1 LIG         1 GROUP             0       ****    0 ROOT    
