@<TRIPOS>MOLECULE
:4crc_ligand
59   63    1
SMALL
USER_CHARGES


@<TRIPOS>ATOM
      1 C24       -49.6480  -10.0190  -23.1830 C.2       1 LIG         0.5567 
      2 O25       -49.5490   -9.1530  -24.0370 O.2       1 LIG        -0.5000 
      3 C26       -48.8370   -9.8910  -21.9370 C.2       1 LIG        -0.1717 
      4 C27       -48.9650  -10.7230  -20.8910 C.2       1 LIG        -0.1150 
      5 C28       -48.1040  -10.4910  -19.7110 C.ar      1 LIG         0.0000 
      6 C29       -46.7240  -10.5330  -19.8310 C.ar      1 LIG        -0.1150 
      7 C30       -45.8880  -10.3210  -18.7440 C.ar      1 LIG         0.1800 
      8 C31       -46.4330  -10.0600  -17.5000 C.ar      1 LIG        -0.1150 
      9 C32       -47.8020  -10.0200  -17.3550 C.ar      1 LIG        -0.1150 
     10 C33       -48.6190  -10.2320  -18.4510 C.ar      1 LIG         0.1225 
     11 N34       -50.0050  -10.1780  -18.2410 N.pl3     1 LIG         0.1588 
     12 C35       -50.7520  -10.9460  -17.4020 C.ar      1 LIG         0.3300 
     13 N36       -52.0150  -10.6060  -17.5350 N.2       1 LIG        -0.3924 
     14 N37       -52.0430   -9.6120  -18.4750 N.2       1 LIG        -0.0402 
     15 N38       -50.8170   -9.3500  -18.9090 N.2       1 LIG        -0.2483 
     16 CL        -44.1560  -10.3840  -18.9270 Cl        1 LIG        -0.1800 
     17 N23       -50.4570  -11.1150  -23.3470 N.am      1 LIG        -0.5000 
     18 C8        -51.1730  -11.2510  -24.6160 C.3       1 LIG         0.1400 
     19 C9        -52.4350  -10.4130  -24.5540 C.2       1 LIG         0.5000 
     20 O10       -53.2680  -10.5010  -23.6580 O.2       1 LIG        -0.5000 
     21 C7        -51.5780  -12.7000  -24.8350 C.3       1 LIG        -0.0050 
     22 C4        -52.1550  -12.9720  -26.1910 C.ar      1 LIG        -0.1150 
     23 C3        -53.2220  -13.8400  -26.2980 C.ar      1 LIG        -0.1150 
     24 C5        -51.6520  -12.3940  -27.3410 C.ar      1 LIG        -0.1150 
     25 C2        -53.7800  -14.1270  -27.5310 C.ar      1 LIG        -0.1150 
     26 C6        -52.2010  -12.6760  -28.5760 C.ar      1 LIG        -0.1150 
     27 C1        -53.2670  -13.5480  -28.6730 C.ar      1 LIG        -0.1150 
     28 N11       -52.5270   -9.5740  -25.6500 N.am      1 LIG        -0.3850 
     29 C12       -53.5330   -8.6130  -25.9140 C.ar      1 LIG         0.0850 
     30 C13       -53.4560   -7.9090  -27.0930 C.ar      1 LIG        -0.1150 
     31 C14       -54.3960   -6.9530  -27.4180 C.ar      1 LIG        -0.1150 
     32 C15       -55.4370   -6.6920  -26.5470 C.ar      1 LIG         0.0932 
     33 C16       -55.5180   -7.4000  -25.3680 C.ar      1 LIG        -0.1150 
     34 C17       -54.5820   -8.3620  -25.0490 C.ar      1 LIG        -0.1150 
     35 C18       -56.4050   -5.6620  -26.8340 C.ar      1 LIG         0.3192 
     36 N19       -56.6930   -5.1960  -28.0820 N.ar      1 LIG        -0.5168 
     37 N20       -57.6210   -4.2340  -28.0010 N.ar      1 LIG        -0.1894 
     38 N21       -57.8840   -4.1100  -26.7060 N.ar      1 LIG        -0.1894 
     39 N22       -57.1390   -4.9880  -25.9730 N.2       1 LIG        -0.5168 
     40 H26       -48.1188   -9.0847  -21.8838 H         1 LIG         0.1150 
     41 H27       -49.6607  -11.5492  -20.8658 H         1 LIG         0.1150 
     42 H29       -46.2820  -10.7456  -20.7931 H         1 LIG         0.1150 
     43 H31       -45.7942   -9.8811  -16.6479 H         1 LIG         0.1150 
     44 H32       -48.1989   -9.7932  -16.3875 H         1 LIG         0.1150 
     45 H35       -50.3672  -11.5726  -16.6461 H         1 LIG         0.0696 
     46 HN23      -50.5367  -11.8298  -22.6389 H         1 LIG         0.3000 
     47 H8        -50.5315  -10.9303  -25.4220 H         1 LIG         0.0600 
     48 H71       -52.3097  -12.9874  -24.0769 H         1 LIG         0.0600 
     49 H72       -50.7560  -13.3861  -24.6597 H         1 LIG         0.0600 
     50 H3        -53.6321  -14.3097  -25.4158 H         1 LIG         0.1150 
     51 H5        -50.7969  -11.7393  -27.3170 H         1 LIG         0.1150 
     52 H2        -54.6123  -14.8118  -27.6007 H         1 LIG         0.1150 
     53 H6        -51.7882  -12.2232  -29.4657 H         1 LIG         0.1150 
     54 H1        -53.6930  -13.7778  -29.6386 H         1 LIG         0.1150 
     55 HN11      -51.7645   -9.6101  -26.3163 H         1 LIG         0.3000 
     56 H13       -52.6443   -8.0956  -27.7794 H         1 LIG         0.1150 
     57 H14       -54.2966   -6.4064  -28.3449 H         1 LIG         0.1150 
     58 H16       -56.3221   -7.2109  -24.6720 H         1 LIG         0.1150 
     59 H17       -54.7392   -8.8616  -24.1115 H         1 LIG         0.1150 
@<TRIPOS>BOND
     1    1    2 2    
     2    1    3 1    
     3    1   17 am   BACKBONE|DICT|INTERRES
     4    3    4 2    
     5    3   40 1    
     6    4    5 1    
     7    4   41 1    
     8    5    6 ar   
     9    5   10 ar   
    10    6    7 ar   
    11    6   42 1    
    12    7    8 ar   
    13    7   16 1    
    14    8    9 ar   
    15    8   43 1    
    16    9   10 ar   
    17    9   44 1    
    18   10   11 1    
    19   11   12 ar   
    20   11   15 ar   
    21   12   13 ar   
    22   12   45 1    
    23   13   14 ar   
    24   14   15 ar   
    25   17   18 1    
    26   17   46 1    
    27   18   19 1    
    28   18   21 1    
    29   18   47 1    
    30   19   20 2    
    31   19   28 am   BACKBONE|DICT|INTERRES
    32   21   22 1    
    33   21   48 1    
    34   21   49 1    
    35   22   23 ar   
    36   22   24 ar   
    37   23   25 ar   
    38   23   50 1    
    39   24   26 ar   
    40   24   51 1    
    41   25   27 ar   
    42   25   52 1    
    43   26   27 ar   
    44   26   53 1    
    45   27   54 1    
    46   28   29 1    
    47   28   55 1    
    48   29   30 ar   
    49   29   34 ar   
    50   30   31 ar   
    51   30   56 1    
    52   31   32 ar   
    53   31   57 1    
    54   32   33 ar   
    55   32   35 1    
    56   33   34 ar   
    57   33   58 1    
    58   34   59 1    
    59   35   36 ar   
    60   35   39 ar   
    61   36   37 ar   
    62   37   38 ar   
    63   38   39 ar   
@<TRIPOS>SUBSTRUCTURE
     1 LIG         1 GROUP             0       ****    0 ROOT    
