@<TRIPOS>MOLECULE
:3ejr_ligand
55   57    1
SMALL
USER_CHARGES


@<TRIPOS>ATOM
      1 O10        26.6190   65.3360    8.2760 O.2       1 LIG        -0.4700 
      2 C10        27.1140   66.3070    8.8450 C.2       1 LIG         0.5850 
      3 C11        26.2040   67.2360    9.5930 C.ar      1 LIG        -0.1150 
      4 C12        26.7170   68.2930   10.3440 C.ar      1 LIG        -0.1150 
      5 C13        25.8570   69.1650   11.0190 C.ar      1 LIG        -0.1150 
      6 C14        24.4690   68.9810   10.9580 C.ar      1 LIG        -0.1150 
      7 C17        23.5580   69.9420   11.7050 C.3       1 LIG         0.1150 
      8 C18        23.8080   71.3640   11.1980 C.3       1 LIG        -0.1800 
      9 C19        22.0780   69.6540   11.4300 C.3       1 LIG        -0.1800 
     10 C20        23.8610   69.8360   13.2000 C.3       1 LIG        -0.1800 
     11 C15        23.9660   67.9210   10.2020 C.ar      1 LIG        -0.1150 
     12 C16        24.8190   67.0450    9.5270 C.ar      1 LIG        -0.1150 
     13 C9         28.5960   66.6670    8.7690 C.3       1 LIG        -0.1200 
     14 C5         29.4440   65.5890    8.0940 C.3       1 LIG         0.2100 
     15 N4         30.9050   65.8080    8.2860 N.4       1 LIG        -0.1000 
     16 C3         31.3810   65.9710    9.6880 C.3       1 LIG         0.1500 
     17 C2         32.8160   66.4900    9.4920 C.3       1 LIG         0.2050 
     18 O2         33.7760   65.4340    9.7020 O.3       1 LIG        -0.5750 
     19 C1         32.9100   67.0370    8.0610 C.3       1 LIG         0.2050 
     20 O1         33.7960   66.2070    7.2620 O.3       1 LIG        -0.5750 
     21 C8A        31.4610   67.0010    7.5760 C.3       1 LIG         0.2100 
     22 C8         31.2190   66.9180    6.0770 C.3       1 LIG         0.2050 
     23 O8         31.6320   68.1290    5.4500 O.3       1 LIG        -0.6830 
     24 C7         29.7240   66.6980    5.7970 C.3       1 LIG        -0.1200 
     25 C6         29.1970   65.4830    6.5740 C.3       1 LIG        -0.1200 
     26 H12        27.7771   68.4809   10.4177 H         1 LIG         0.1150 
     27 H13        26.2850   69.9760   11.5887 H         1 LIG         0.1150 
     28 H181       23.1455   72.0802   11.6854 H         1 LIG         0.0600 
     29 H182       24.8262   71.7013   11.3905 H         1 LIG         0.0600 
     30 H183       23.6383   71.4444   10.1255 H         1 LIG         0.0600 
     31 H191       21.4400   70.3627   11.9593 H         1 LIG         0.0600 
     32 H192       21.8286   69.7417   10.3729 H         1 LIG         0.0600 
     33 H193       21.7833   68.6621   11.7744 H         1 LIG         0.0600 
     34 H201       23.2108   70.4930   13.7786 H         1 LIG         0.0600 
     35 H202       23.7031   68.8197   13.5631 H         1 LIG         0.0600 
     36 H203       24.8875   70.1154   13.4376 H         1 LIG         0.0600 
     37 H15        22.9096   67.7278   10.1084 H         1 LIG         0.1150 
     38 H16        24.3857   66.2395    8.9527 H         1 LIG         0.1150 
     39 H91        28.8983   66.7871    9.8044 H         1 LIG         0.0600 
     40 H92        28.7214   67.6298    8.2817 H         1 LIG         0.0600 
     41 H5         29.2370   64.6409    8.5812 H         1 LIG         0.0600 
     42 HN4        31.3878   64.9965    7.9118 H         1 LIG         0.2900 
     43 H31        31.3266   65.0509   10.2532 H         1 LIG         0.0600 
     44 H32        30.8364   66.7354   10.2375 H         1 LIG         0.0600 
     45 H2         33.0286   67.2814   10.2108 H         1 LIG         0.0600 
     46 HO2        34.0865   65.4014   10.5865 H         1 LIG         0.3100 
     47 H1         33.3142   68.0404    8.0192 H         1 LIG         0.0600 
     48 HO1        33.6967   66.2593    6.3308 H         1 LIG         0.3100 
     49 H8A        30.9487   67.8797    7.9624 H         1 LIG         0.0600 
     50 H8         31.7562   66.0836    5.6395 H         1 LIG         0.0600 
     51 HO8        31.0110   68.8223    5.6266 H         1 LIG         0.4180 
     52 H71        29.5683   66.5418    4.7328 H         1 LIG         0.0600 
     53 H72        29.1506   67.5871    6.0628 H         1 LIG         0.0600 
     54 H61        28.1526   65.3183    6.3700 H         1 LIG         0.0600 
     55 H62        29.6996   64.5905    6.1985 H         1 LIG         0.0600 
@<TRIPOS>BOND
     1    1    2 2    
     2    2    3 1    
     3    2   13 1    
     4    3    4 ar   
     5    3   12 ar   
     6    4    5 ar   
     7    4   26 1    
     8    5    6 ar   
     9    5   27 1    
    10    6    7 1    
    11    6   11 ar   
    12    7    8 1    
    13    7    9 1    
    14    7   10 1    
    15    8   28 1    
    16    8   29 1    
    17    8   30 1    
    18    9   31 1    
    19    9   32 1    
    20    9   33 1    
    21   10   34 1    
    22   10   35 1    
    23   10   36 1    
    24   11   12 ar   
    25   11   37 1    
    26   12   38 1    
    27   13   14 1    
    28   13   39 1    
    29   13   40 1    
    30   14   15 1    
    31   14   25 1    
    32   14   41 1    
    33   15   16 1    
    34   15   21 1    
    35   15   42 1    
    36   16   17 1    
    37   16   43 1    
    38   16   44 1    
    39   17   18 1    
    40   17   19 1    
    41   17   45 1    
    42   18   46 1    
    43   19   20 1    
    44   19   21 1    
    45   19   47 1    
    46   20   48 1    
    47   21   22 1    
    48   21   49 1    
    49   22   23 1    
    50   22   24 1    
    51   22   50 1    
    52   23   51 1    
    53   24   25 1    
    54   24   52 1    
    55   24   53 1    
    56   25   54 1    
    57   25   55 1    
@<TRIPOS>SUBSTRUCTURE
     1 LIG         1 GROUP             0       ****    0 ROOT    
