@<TRIPOS>MOLECULE
:4x6p_ligand
63   68    1
SMALL
USER_CHARGES


@<TRIPOS>ATOM
      1 N14        10.4640   18.3920  -38.8120 N.2       1 LIG        -0.5630 
      2 C13         9.6580   17.4950  -39.4920 C.ar      1 LIG         0.2600 
      3 C18         6.4050   15.5140  -37.5450 C.ar      1 LIG         0.0183 
      4 C17         6.9770   14.9820  -38.7170 C.ar      1 LIG         0.2601 
      5 C16         8.0670   15.5870  -39.3370 C.ar      1 LIG        -0.3879 
      6 C15         8.6230   16.7330  -38.7680 C.ar      1 LIG         0.0996 
      7 C19         6.9970   16.6380  -36.9700 C.ar      1 LIG        -0.2193 
      8 C20         8.0890   17.2330  -37.5750 C.ar      1 LIG        -0.1915 
      9 C21        19.7430   16.8600  -40.9280 C.ar      1 LIG        -0.1150 
     10 C22        20.5770   17.3090  -39.9130 C.ar      1 LIG        -0.1150 
     11 C23        20.0630   18.1340  -38.9330 C.ar      1 LIG         0.1800 
     12 C24        18.7340   18.5050  -38.9300 C.ar      1 LIG        -0.1150 
     13 C12        10.0510   17.4420  -40.7950 C.ar      1 LIG        -0.2860 
     14 C33        17.8470   16.8600  -43.3980 C.ar      1 LIG         0.3300 
     15 N1         13.7240   19.4490  -39.5490 N.am      1 LIG        -0.5000 
     16 C2         12.3480   19.9150  -39.3760 C.3       1 LIG         0.2550 
     17 C3         11.3140   18.8760  -39.7030 C.ar      1 LIG         0.2380 
     18 C4         12.0950   21.2270  -40.1440 C.3       1 LIG        -0.0050 
     19 C5         10.7590   21.8640  -39.8350 C.ar      1 LIG        -0.1150 
     20 C6         10.0380   22.5010  -40.8370 C.ar      1 LIG        -0.1150 
     21 C7          8.8170   23.0920  -40.5590 C.ar      1 LIG        -0.1150 
     22 C8          8.3020   23.0670  -39.2770 C.ar      1 LIG        -0.1150 
     23 C9          9.0040   22.4400  -38.2720 C.ar      1 LIG        -0.1150 
     24 C10        10.2240   21.8430  -38.5470 C.ar      1 LIG        -0.1150 
     25 N11        11.0850   18.3280  -40.9180 N.pl3     1 LIG        -0.2570 
     26 C25        17.8770   18.0380  -39.9340 C.ar      1 LIG         0.0000 
     27 C26        18.3900   17.1940  -40.9400 C.ar      1 LIG         0.1225 
     28 N27        17.5990   16.8560  -42.0780 N.pl3     1 LIG         0.1588 
     29 CL1        21.1170   18.7520  -37.6900 Cl        1 LIG        -0.1800 
     30 C29        16.4730   18.4750  -39.8620 C.2       1 LIG        -0.1150 
     31 C30        15.6650   18.2190  -38.8350 C.2       1 LIG        -0.1717 
     32 C31        14.2510   18.6120  -38.6310 C.2       1 LIG         0.5567 
     33 O32        13.5700   18.1550  -37.7110 O.2       1 LIG        -0.5000 
     34 N34        16.8290   16.3690  -44.0480 N.2       1 LIG        -0.3924 
     35 N35        15.9280   16.0190  -43.0950 N.2       1 LIG        -0.0402 
     36 N36        16.3770   16.2910  -41.9080 N.2       1 LIG        -0.2483 
     37 N37         6.2560   13.8790  -39.0360 N.pl3     1 LIG        -0.1920 
     38 N38         5.2250   13.6760  -38.1610 N.2       1 LIG        -0.4212 
     39 C39         5.2590   14.6410  -37.2410 C.ar      1 LIG         0.4005 
     40 N40         4.3450   14.7230  -36.2550 N.pl3     1 LIG        -0.9200 
     41 H16         8.4577   15.1783  -40.2571 H         1 LIG         0.1888 
     42 H19         6.6001   17.0676  -36.0676 H         1 LIG         0.1691 
     43 H20         8.4930   18.1322  -37.1376 H         1 LIG         0.1424 
     44 H21        20.1610   16.2400  -41.7002 H         1 LIG         0.1150 
     45 H22        21.6202   17.0362  -39.9059 H         1 LIG         0.1150 
     46 H24        18.3645   19.1641  -38.1579 H         1 LIG         0.1150 
     47 H12         9.6731   16.8690  -41.6270 H         1 LIG         0.1870 
     48 H33        18.7520   17.2084  -43.8546 H         1 LIG         0.0696 
     49 HN1        14.2812   19.8047  -40.3118 H         1 LIG         0.3000 
     50 H2         12.2331   20.1329  -38.3270 H         1 LIG         0.0600 
     51 H41        12.1265   21.0072  -41.2120 H         1 LIG         0.0600 
     52 H42        12.8891   21.9538  -40.0006 H         1 LIG         0.0600 
     53 H6         10.4275   22.5414  -41.8437 H         1 LIG         0.1150 
     54 H7          8.2684   23.5865  -41.3470 H         1 LIG         0.1150 
     55 H8          7.3542   23.5383  -39.0618 H         1 LIG         0.1150 
     56 H9          8.6085   22.4185  -37.2670 H         1 LIG         0.1150 
     57 H10        10.7440   21.3978  -37.7154 H         1 LIG         0.1150 
     58 HN11       11.5901   18.5412  -41.7660 H         1 LIG         0.3060 
     59 H29        16.1119   19.0417  -40.7079 H         1 LIG         0.1150 
     60 H30        16.0956   17.6441  -38.0273 H         1 LIG         0.1150 
     61 HN37        6.4111   13.2562  -39.8178 H         1 LIG         0.3331 
     62 H401        3.6483   14.0051  -36.1249 H         1 LIG         0.3600 
     63 H402        4.4138   15.4395  -35.5422 H         1 LIG         0.3600 
@<TRIPOS>BOND
     1    1    2 ar   
     2    1   17 ar   
     3    2    6 1    
     4    2   13 ar   
     5    3    4 ar   
     6    3    7 ar   
     7    3   39 ar   
     8    4    5 ar   
     9    4   37 ar   
    10    5    6 ar   
    11    5   41 1    
    12    6    8 ar   
    13    7    8 ar   
    14    7   42 1    
    15    8   43 1    
    16    9   10 ar   
    17    9   27 ar   
    18    9   44 1    
    19   10   11 ar   
    20   10   45 1    
    21   11   12 ar   
    22   11   29 1    
    23   12   26 ar   
    24   12   46 1    
    25   13   25 ar   
    26   13   47 1    
    27   14   28 ar   
    28   14   34 ar   
    29   14   48 1    
    30   15   16 1    
    31   15   32 am   BACKBONE|DICT|INTERRES
    32   15   49 1    
    33   16   17 1    
    34   16   18 1    
    35   16   50 1    
    36   17   25 ar   
    37   18   19 1    
    38   18   51 1    
    39   18   52 1    
    40   19   20 ar   
    41   19   24 ar   
    42   20   21 ar   
    43   20   53 1    
    44   21   22 ar   
    45   21   54 1    
    46   22   23 ar   
    47   22   55 1    
    48   23   24 ar   
    49   23   56 1    
    50   24   57 1    
    51   25   58 1    
    52   26   27 ar   
    53   26   30 1    
    54   27   28 1    
    55   28   36 ar   
    56   30   31 2    
    57   30   59 1    
    58   31   32 1    
    59   31   60 1    
    60   32   33 2    
    61   34   35 ar   
    62   35   36 ar   
    63   37   38 ar   
    64   37   61 1    
    65   38   39 ar   
    66   39   40 1    
    67   40   62 1    
    68   40   63 1    
@<TRIPOS>SUBSTRUCTURE
     1 LIG         1 GROUP             0       ****    0 ROOT    
