@<TRIPOS>MOLECULE
:4mme_ligand
34   37    1
SMALL
USER_CHARGES


@<TRIPOS>ATOM
      1 CL        100.3790   19.6420   30.8160 Cl        1 LIG        -0.1800 
      2 C13       101.2710   20.4260   32.1850 C.ar      1 LIG         0.1800 
      3 C12       100.8190   20.3510   33.5130 C.ar      1 LIG        -0.1150 
      4 C11       101.5270   20.9880   34.5560 C.ar      1 LIG        -0.1150 
      5 C14       102.4030   21.1290   31.8960 C.ar      1 LIG        -0.1150 
      6 C15       103.1010   21.7590   32.9330 C.ar      1 LIG        -0.1150 
      7 C10       102.6950   21.6830   34.2580 C.ar      1 LIG        -0.1150 
      8 C         103.5100   22.4590   35.2620 C.3       1 LIG         0.8695 
      9 O         104.5730   23.1170   34.5470 O.3       1 LIG        -0.6830 
     10 C5        102.6350   23.4890   35.9670 C.ar      1 LIG        -0.0760 
     11 C6        101.7450   24.4010   35.4000 C.ar      1 LIG        -0.1060 
     12 C7        101.0290   25.3160   36.1990 C.ar      1 LIG         0.0130 
     13 C8        101.2090   25.3220   37.5830 C.ar      1 LIG        -0.1060 
     14 C9        102.1230   24.4150   38.1840 C.ar      1 LIG        -0.0900 
     15 C4        102.8010   23.5260   37.3550 C.ar      1 LIG        -0.1190 
     16 C1        103.8000   22.4380   37.5390 C.2       1 LIG         0.8270 
     17 N         104.1540   21.8270   36.4340 N.pl3     1 LIG        -0.7430 
     18 C3        105.1350   20.7930   36.4880 C.3       1 LIG         0.2545 
     19 C2        105.3030   20.7650   38.0340 C.3       1 LIG         0.2545 
     20 N1        104.4690   21.8590   38.5790 N.pl3     1 LIG        -0.8140 
     21 H12        99.9142   19.8053   33.7379 H         1 LIG         0.1150 
     22 H11       101.1675   20.9312   35.5732 H         1 LIG         0.1150 
     23 H14       102.7580   21.1949   30.8795 H         1 LIG         0.1150 
     24 H15       104.0070   22.2165   32.6007 H         1 LIG         0.1150 
     25 HO        105.1328   23.5556   35.1769 H         1 LIG         0.4180 
     26 H6        101.6033   24.4090   34.3290 H         1 LIG         0.1410 
     27 H7        100.3397   26.0107   35.7408 H         1 LIG         0.1190 
     28 H8        100.6576   26.0199   38.1964 H         1 LIG         0.1410 
     29 H9        102.2741   24.4109   39.2522 H         1 LIG         0.1290 
     30 H31       106.0241   21.1574   35.9806 H         1 LIG         0.0600 
     31 H32       104.7832   19.8706   36.0405 H         1 LIG         0.0600 
     32 H21       106.3170   21.0622   38.2500 H         1 LIG         0.0600 
     33 H22       105.0685   19.7989   38.4771 H         1 LIG         0.0600 
     34 HN1       104.4282   22.1453   39.5486 H         1 LIG         0.4455 
@<TRIPOS>BOND
     1    1    2 1    
     2    2    3 ar   
     3    2    5 ar   
     4    3    4 ar   
     5    3   21 1    
     6    4    7 ar   
     7    4   22 1    
     8    5    6 ar   
     9    5   23 1    
    10    6    7 ar   
    11    6   24 1    
    12    7    8 1    
    13    8    9 1    
    14    8   10 1    
    15    8   17 1    
    16    9   25 1    
    17   10   11 ar   
    18   10   15 ar   
    19   11   12 ar   
    20   11   26 1    
    21   12   13 ar   
    22   12   27 1    
    23   13   14 ar   
    24   13   28 1    
    25   14   15 ar   
    26   14   29 1    
    27   15   16 1    
    28   16   17 1    
    29   16   20 2    
    30   17   18 1    
    31   18   19 1    
    32   18   30 1    
    33   18   31 1    
    34   19   20 1    
    35   19   32 1    
    36   19   33 1    
    37   20   34 1    
@<TRIPOS>SUBSTRUCTURE
     1 LIG         1 GROUP             0       ****    0 ROOT    
