@<TRIPOS>MOLECULE
:4eo8_ligand
56   57    1
SMALL
USER_CHARGES


@<TRIPOS>ATOM
      1 C01         9.1710   33.0920   73.7980 C.2       1 LIG        -0.0738 
      2 C02         7.8110   33.4780   74.0990 C.2       1 LIG         0.1323 
      3 C03         6.9690   33.0800   73.0560 C.2       1 LIG        -0.1787 
      4 S04         7.8080   32.3070   71.7900 S.3       1 LIG         0.0328 
      5 C05         9.2980   32.4590   72.5770 C.2       1 LIG        -0.0287 
      6 C06        10.4950   31.9650   71.9860 C.1       1 LIG        -0.0350 
      7 C07        11.4630   31.5280   71.4320 C.1       1 LIG         0.0000 
      8 C08        12.6420   30.9940   70.7220 C.3       1 LIG         0.0000 
      9 C09        13.8990   31.6210   71.3470 C.3       1 LIG        -0.1800 
     10 C10        12.6960   29.4610   70.8310 C.3       1 LIG        -0.1800 
     11 C11        12.5650   31.3960   69.2370 C.3       1 LIG        -0.1800 
     12 N12         7.3570   34.1290   75.2730 N.am      1 LIG        -0.0850 
     13 C13         7.3070   35.5270   75.3800 C.2       1 LIG         0.5000 
     14 N14         6.9220   33.3750   76.3820 N.3       1 LIG        -0.2450 
     15 C15         7.8130   36.3140   74.1640 C.3       1 LIG        -0.0600 
     16 O16         6.9170   36.1230   76.3890 O.2       1 LIG        -0.5000 
     17 C17         6.9490   37.5450   73.8440 C.3       1 LIG        -0.1200 
     18 C18         7.5600   38.3450   72.6870 C.3       1 LIG        -0.1200 
     19 C19         8.9910   38.7940   73.0310 C.3       1 LIG        -0.0600 
     20 C20         9.8670   37.5910   73.3920 C.3       1 LIG        -0.1200 
     21 C21         9.2450   36.7420   74.5010 C.3       1 LIG        -0.1200 
     22 C22         9.6290   39.5800   71.8800 C.3       1 LIG        -0.1800 
     23 C23         5.5810   32.8100   76.2900 C.3       1 LIG        -0.0575 
     24 C24         7.9490   32.4790   76.9020 C.3       1 LIG        -0.0575 
     25 C25         5.5510   33.2080   72.8130 C.2       1 LIG         0.7150 
     26 O26         4.9040   32.5770   71.9880 O.co2     1 LIG        -0.8000 
     27 O27         4.9950   34.1710   73.5890 O.co2     1 LIG        -0.8000 
     28 H01         9.9730   33.3146   74.4769 H         1 LIG         0.1211 
     29 H091       14.8000   31.2922   70.8284 H         1 LIG         0.0600 
     30 H092       13.8790   32.7111   71.3002 H         1 LIG         0.0600 
     31 H093       14.0095   31.3338   72.3933 H         1 LIG         0.0600 
     32 H101       13.5896   29.0647   70.3482 H         1 LIG         0.0600 
     33 H102       12.7207   29.1343   71.8716 H         1 LIG         0.0600 
     34 H103       11.8309   28.9925   70.3596 H         1 LIG         0.0600 
     35 H111       13.4334   31.0303   68.6882 H         1 LIG         0.0600 
     36 H112       11.6789   30.9848   68.7505 H         1 LIG         0.0600 
     37 H113       12.5342   32.4799   69.1159 H         1 LIG         0.0600 
     38 H15         7.8282   35.7326   73.2446 H         1 LIG         0.0600 
     39 H171        6.8506   38.1897   74.7188 H         1 LIG         0.0600 
     40 H172        5.9395   37.2298   73.5756 H         1 LIG         0.0600 
     41 H181        6.9361   39.2110   72.4752 H         1 LIG         0.0600 
     42 H182        7.5847   37.7388   71.7831 H         1 LIG         0.0600 
     43 H19         8.9429   39.4374   73.8987 H         1 LIG         0.0600 
     44 H201       10.8581   37.9253   73.7000 H         1 LIG         0.0600 
     45 H202       10.0231   36.9670   72.5133 H         1 LIG         0.0600 
     46 H211        9.8761   35.8691   74.6743 H         1 LIG         0.0600 
     47 H212        9.2601   37.3183   75.4283 H         1 LIG         0.0600 
     48 H221       10.6357   39.9119   72.1355 H         1 LIG         0.0600 
     49 H222        9.6961   38.9830   70.9704 H         1 LIG         0.0600 
     50 H223        9.0387   40.4677   71.6543 H         1 LIG         0.0600 
     51 H231        5.3014   32.3572   77.2414 H         1 LIG         0.0600 
     52 H232        4.8562   33.5917   76.0631 H         1 LIG         0.0600 
     53 H233        5.5413   32.0428   75.5166 H         1 LIG         0.0600 
     54 H241        7.6384   32.0761   77.8662 H         1 LIG         0.0600 
     55 H242        8.1133   31.6471   76.2162 H         1 LIG         0.0600 
     56 H243        8.8868   33.0179   77.0412 H         1 LIG         0.0600 
@<TRIPOS>BOND
     1    1    2 1    
     2    1    5 2    
     3    1   28 1    
     4    2    3 2    
     5    2   12 1    
     6    3    4 1    
     7    3   25 1    
     8    4    5 1    
     9    5    6 1    
    10    6    7 3    
    11    7    8 1    
    12    8    9 1    
    13    8   10 1    
    14    8   11 1    
    15    9   29 1    
    16    9   30 1    
    17    9   31 1    
    18   10   32 1    
    19   10   33 1    
    20   10   34 1    
    21   11   35 1    
    22   11   36 1    
    23   11   37 1    
    24   12   13 am   BACKBONE|DICT|INTERRES
    25   12   14 1    
    26   13   15 1    
    27   13   16 2    
    28   14   23 1    
    29   14   24 1    
    30   15   17 1    
    31   15   21 1    
    32   15   38 1    
    33   17   18 1    
    34   17   39 1    
    35   17   40 1    
    36   18   19 1    
    37   18   41 1    
    38   18   42 1    
    39   19   20 1    
    40   19   22 1    
    41   19   43 1    
    42   20   21 1    
    43   20   44 1    
    44   20   45 1    
    45   21   46 1    
    46   21   47 1    
    47   22   48 1    
    48   22   49 1    
    49   22   50 1    
    50   23   51 1    
    51   23   52 1    
    52   23   53 1    
    53   24   54 1    
    54   24   55 1    
    55   24   56 1    
    56   25   26 2    
    57   25   27 1    
@<TRIPOS>SUBSTRUCTURE
     1 LIG         1 GROUP             0       ****    0 ROOT    
