@<TRIPOS>MOLECULE
:3zsx_ligand
60   63    1
SMALL
USER_CHARGES


@<TRIPOS>ATOM
      1 C1         -8.6990   42.1900   -0.2160 C.ar      1 LIG        -0.1150 
      2 C2        -10.5610   48.0060    5.9460 C.ar      1 LIG        -0.1150 
      3 C3         -8.3660   41.6880    1.0240 C.ar      1 LIG        -0.1150 
      4 C4         -8.4790   43.5210   -0.4930 C.ar      1 LIG        -0.1150 
      5 C5        -11.4430   48.8430    5.3080 C.ar      1 LIG        -0.1150 
      6 C6         -9.5690   47.3550    5.2370 C.ar      1 LIG        -0.1150 
      7 C7         -7.8310   42.5170    1.9820 C.ar      1 LIG        -0.1150 
      8 C8         -7.9500   44.3510    0.4730 C.ar      1 LIG        -0.1150 
      9 C9        -11.3160   49.0260    3.9420 C.ar      1 LIG        -0.1150 
     10 C10       -11.4150   45.4100   -1.4350 C.ar      1 LIG        -0.1150 
     11 C11       -12.2240   44.8440   -2.4120 C.ar      1 LIG        -0.1150 
     12 C12        -9.4420   47.5320    3.8700 C.ar      1 LIG        -0.1150 
     13 C13       -13.2840   45.6280    0.1090 C.ar      1 LIG        -0.1150 
     14 C14        -7.6250   43.8540    1.7210 C.ar      1 LIG        -0.1150 
     15 C15       -10.3280   48.3820    3.2220 C.ar      1 LIG        -0.1150 
     16 C16       -11.9300   45.7920   -0.1960 C.ar      1 LIG        -0.1150 
     17 C17       -13.5540   44.6850   -2.0970 C.ar      1 LIG         0.0850 
     18 C18       -14.0720   45.0580   -0.8820 C.ar      1 LIG         0.0850 
     19 C19        -9.7750   49.8150   -1.5440 C.2       1 LIG        -0.2300 
     20 C20       -10.4420   48.6770   -1.3170 C.2       1 LIG        -0.1150 
     21 C21        -8.3530   46.8170    3.1400 C.2       1 LIG         0.6150 
     22 C22       -13.8630   46.0140    1.4470 C.2       1 LIG         0.7150 
     23 C23       -15.6780   44.2290   -2.1100 C.3       1 LIG         0.2000 
     24 C24        -7.0610   44.7550    2.7740 C.3       1 LIG         0.1950 
     25 C25       -10.2600   48.6390    1.7570 C.3       1 LIG         0.2650 
     26 C26       -10.9790   46.4010    0.7950 C.3       1 LIG         0.2650 
     27 C27       -11.5650   48.6040   -0.3400 C.3       1 LIG         0.1500 
     28 N28        -8.1140   45.4850    3.4500 N.am      1 LIG        -0.5000 
     29 N29       -11.2360   47.8790    0.9330 N.4       1 LIG        -0.1000 
     30 O30       -14.8250   45.3120    1.8660 O.co2     1 LIG        -0.8000 
     31 O31        -7.7010   47.4220    2.3030 O.2       1 LIG        -0.5000 
     32 O32       -13.3620   46.9690    2.1130 O.co2     1 LIG        -0.8000 
     33 O33       -14.4970   44.1510   -2.9400 O.3       1 LIG        -0.2850 
     34 O34       -15.4420   44.8020   -0.8110 O.3       1 LIG        -0.2850 
     35 H1         -9.1179   41.5391   -0.9694 H         1 LIG         0.1150 
     36 H2        -10.6455   47.8547    7.0115 H         1 LIG         0.1150 
     37 H3         -8.5214   40.6410    1.2400 H         1 LIG         0.1150 
     38 H4         -8.7181   43.9124   -1.4705 H         1 LIG         0.1150 
     39 H5        -12.2240   49.3446    5.8604 H         1 LIG         0.1150 
     40 H6         -8.8822   46.7162    5.7733 H         1 LIG         0.1150 
     41 H7         -7.5702   42.1104    2.9481 H         1 LIG         0.1150 
     42 H8         -7.7786   45.3929    0.2450 H         1 LIG         0.1150 
     43 H9        -12.0162   49.6791    3.4407 H         1 LIG         0.1150 
     44 H10       -10.3664   45.5414   -1.6522 H         1 LIG         0.1150 
     45 H11       -11.8262   44.5409   -3.3675 H         1 LIG         0.1150 
     46 H191       -8.9597   49.8449   -2.2516 H         1 LIG         0.1150 
     47 H192      -10.0279   50.7323   -1.0322 H         1 LIG         0.1150 
     48 H20       -10.1652   47.7776   -1.8388 H         1 LIG         0.1150 
     49 H231      -16.0595   43.2179   -1.9686 H         1 LIG         0.1000 
     50 H232      -16.4349   44.8204   -2.6260 H         1 LIG         0.1000 
     51 H241       -6.2955   45.3989    2.3373 H         1 LIG         0.0600 
     52 H242       -6.5416   44.1556    3.5227 H         1 LIG         0.0600 
     53 H251       -9.2897   48.6341    1.2788 H         1 LIG         0.0600 
     54 H252      -10.5243   49.6938    1.6672 H         1 LIG         0.0600 
     55 H261       -9.9544   46.2704    0.4507 H         1 LIG         0.0600 
     56 H262      -11.0381   45.8953    1.7599 H         1 LIG         0.0600 
     57 H271      -12.4368   48.1798   -0.8364 H         1 LIG         0.0600 
     58 H272      -11.8850   49.6154   -0.0850 H         1 LIG         0.0600 
     59 HN28       -8.6881   45.0079    4.1352 H         1 LIG         0.3000 
     60 HN29      -12.1037   47.8981    1.4626 H         1 LIG         0.2900 
@<TRIPOS>BOND
     1    1    3 ar   
     2    1    4 ar   
     3    1   35 1    
     4    2    5 ar   
     5    2    6 ar   
     6    2   36 1    
     7    3    7 ar   
     8    3   37 1    
     9    4    8 ar   
    10    4   38 1    
    11    5    9 ar   
    12    5   39 1    
    13    6   12 ar   
    14    6   40 1    
    15    7   14 ar   
    16    7   41 1    
    17    8   14 ar   
    18    8   42 1    
    19    9   15 ar   
    20    9   43 1    
    21   10   11 ar   
    22   10   16 ar   
    23   10   44 1    
    24   11   17 ar   
    25   11   45 1    
    26   12   15 ar   
    27   12   21 1    
    28   13   16 ar   
    29   13   18 ar   
    30   13   22 1    
    31   14   24 1    
    32   15   25 1    
    33   16   26 1    
    34   17   18 ar   
    35   17   33 1    
    36   18   34 1    
    37   19   20 2    
    38   19   46 1    
    39   19   47 1    
    40   20   27 1    
    41   20   48 1    
    42   21   28 am   BACKBONE|DICT|INTERRES
    43   21   31 2    
    44   22   30 2    
    45   22   32 1    
    46   23   33 1    
    47   23   34 1    
    48   23   49 1    
    49   23   50 1    
    50   24   28 1    
    51   24   51 1    
    52   24   52 1    
    53   25   29 1    
    54   25   53 1    
    55   25   54 1    
    56   26   29 1    
    57   26   55 1    
    58   26   56 1    
    59   27   29 1    
    60   27   57 1    
    61   27   58 1    
    62   28   59 1    
    63   29   60 1    
@<TRIPOS>SUBSTRUCTURE
     1 LIG         1 GROUP             0       ****    0 ROOT    
