@<TRIPOS>MOLECULE
:2yfe_ligand
48   49    1
SMALL
USER_CHARGES


@<TRIPOS>ATOM
      1 CAB        18.6640   17.5110   44.2480 C.3       1 LIG        -0.1800 
      2 CAR        17.1790   17.8100   44.5240 C.2       1 LIG         0.0000 
      3 CAC        16.2080   17.7330   43.3220 C.3       1 LIG        -0.1800 
      4 CAG        16.6600   18.1180   45.8000 C.2       1 LIG        -0.1150 
      5 CAN        17.2270   18.2660   47.0780 C.3       1 LIG        -0.0050 
      6 CAX        16.9040   19.6930   47.6090 C.ar      1 LIG        -0.1150 
      7 CAW        15.5970   20.1680   47.7370 C.ar      1 LIG         0.0850 
      8 CAM        15.3210   21.4570   48.1940 C.ar      1 LIG        -0.1150 
      9 OAQ        14.5520   19.3570   47.4130 O.3       1 LIG        -0.2850 
     10 CAA        13.4130   19.6300   48.2760 C.3       1 LIG         0.1100 
     11 CAU        17.9230   20.5690   47.9840 C.ar      1 LIG         0.1500 
     12 OAF        19.2160   20.1590   47.8900 O.3       1 LIG        -0.5850 
     13 CAY        17.6630   21.8630   48.4410 C.ar      1 LIG        -0.1150 
     14 CAS        18.8620   22.7510   48.8280 C.2       1 LIG         0.7150 
     15 OAE        19.9900   22.2040   48.8470 O.co2     1 LIG        -0.8000 
     16 OAD        18.6550   23.9480   49.1340 O.co2     1 LIG        -0.8000 
     17 CAV        16.3410   22.3180   48.5690 C.ar      1 LIG        -0.1150 
     18 CAP        15.9040   23.7170   49.0390 C.3       1 LIG        -0.0050 
     19 CAO        15.7120   23.8370   50.5400 C.3       1 LIG        -0.0050 
     20 CAT        15.1980   25.2300   50.9540 C.ar      1 LIG        -0.1150 
     21 CAK        14.8020   26.1750   50.0090 C.ar      1 LIG        -0.1150 
     22 CAI        14.3350   27.4320   50.4130 C.ar      1 LIG        -0.1150 
     23 CAH        14.2700   27.7410   51.7710 C.ar      1 LIG        -0.1150 
     24 CAJ        14.6670   26.7950   52.7280 C.ar      1 LIG        -0.1150 
     25 CAL        15.1300   25.5470   52.3130 C.ar      1 LIG        -0.1150 
     26 HAB1       19.2923   17.6262   45.1296 H         1 LIG         0.0600 
     27 HAB2       18.7795   16.4973   43.8660 H         1 LIG         0.0600 
     28 HAB3       19.0194   18.1850   43.4711 H         1 LIG         0.0600 
     29 HAC1       15.1665   17.7026   43.6401 H         1 LIG         0.0600 
     30 HAC2       16.3569   18.5864   42.6612 H         1 LIG         0.0600 
     31 HAC3       16.3987   16.8248   42.7498 H         1 LIG         0.0600 
     32 HAG        15.5943   18.2492   45.7749 H         1 LIG         0.1150 
     33 HAN1       18.2931   18.0513   47.0590 H         1 LIG         0.0600 
     34 HAN2       16.7762   17.5355   47.7503 H         1 LIG         0.0600 
     35 HAM        14.3188   21.8508   48.2505 H         1 LIG         0.1150 
     36 HAA1       12.7807   18.7432   48.2727 H         1 LIG         0.0300 
     37 HAA2       13.6738   19.8054   49.3226 H         1 LIG         0.0300 
     38 HAA3       12.7886   20.4393   47.8950 H         1 LIG         0.0300 
     39 HOAF       19.7821   20.8623   48.2097 H         1 LIG         0.4350 
     40 HAP1       14.9344   23.8890   48.5707 H         1 LIG         0.0600 
     41 HAP2       16.5108   24.5103   48.6129 H         1 LIG         0.0600 
     42 HAO1       16.6650   23.6570   51.0288 H         1 LIG         0.0600 
     43 HAO2       15.0158   23.0741   50.8813 H         1 LIG         0.0600 
     44 HAK        14.8567   25.9998   48.9482 H         1 LIG         0.1150 
     45 HAI        14.0420   28.1645   49.6765 H         1 LIG         0.1150 
     46 HAH        13.9147   28.7107   52.0879 H         1 LIG         0.1150 
     47 HAJ        14.6148   27.0339   53.7805 H         1 LIG         0.1150 
     48 HAL        15.4354   24.8205   53.0521 H         1 LIG         0.1150 
@<TRIPOS>BOND
     1    1    2 1    
     2    1   26 1    
     3    1   27 1    
     4    1   28 1    
     5    2    3 1    
     6    2    4 2    
     7    3   29 1    
     8    3   30 1    
     9    3   31 1    
    10    4    5 1    
    11    4   32 1    
    12    5    6 1    
    13    5   33 1    
    14    5   34 1    
    15    6    7 ar   
    16    6   11 ar   
    17    7    8 ar   
    18    7    9 1    
    19    8   17 ar   
    20    8   35 1    
    21    9   10 1    
    22   10   36 1    
    23   10   37 1    
    24   10   38 1    
    25   11   12 1    
    26   11   13 ar   
    27   12   39 1    
    28   13   14 1    
    29   13   17 ar   
    30   14   15 2    
    31   14   16 1    
    32   17   18 1    
    33   18   19 1    
    34   18   40 1    
    35   18   41 1    
    36   19   20 1    
    37   19   42 1    
    38   19   43 1    
    39   20   21 ar   
    40   20   25 ar   
    41   21   22 ar   
    42   21   44 1    
    43   22   23 ar   
    44   22   45 1    
    45   23   24 ar   
    46   23   46 1    
    47   24   25 ar   
    48   24   47 1    
    49   25   48 1    
@<TRIPOS>SUBSTRUCTURE
     1 LIG         1 GROUP             0       ****    0 ROOT    
