@<TRIPOS>MOLECULE
:1uto_ligand
21   21    1
SMALL
USER_CHARGES


@<TRIPOS>ATOM
      1 C1'        45.2880   20.2790   50.4580 C.ar      1 LIG        -0.1150 
      2 C6'        46.2750   21.2320   50.6380 C.ar      1 LIG        -0.1150 
      3 C5'        46.1530   22.5390   50.1950 C.ar      1 LIG        -0.1150 
      4 C4'        45.0100   22.9460   49.5230 C.ar      1 LIG        -0.1150 
      5 C3'        44.0220   22.0000   49.3210 C.ar      1 LIG        -0.1150 
      6 C2'        44.1610   20.7100   49.7750 C.ar      1 LIG        -0.1150 
      7 C2         45.4430   18.9650   50.9490 C.3       1 LIG        -0.0050 
      8 C1         45.5370   18.9420   52.5050 C.3       1 LIG         0.1900 
      9 N          45.7910   17.5620   53.0200 N.4       1 LIG        -0.3000 
     10 H6'        47.1846   20.9593   51.1532 H         1 LIG         0.1150 
     11 H5'        46.9532   23.2430   50.3704 H         1 LIG         0.1150 
     12 H4'        44.8932   23.9621   49.1767 H         1 LIG         0.1150 
     13 H3'        43.1035   22.2860   48.8405 H         1 LIG         0.1150 
     14 H2'        43.3507   20.0173   49.5995 H         1 LIG         0.1150 
     15 H21        46.3371   18.5322   50.5037 H         1 LIG         0.0600 
     16 H22        44.6099   18.3403   50.6230 H         1 LIG         0.0600 
     17 H11        44.6338   19.3331   52.9490 H         1 LIG         0.0600 
     18 H12        46.3563   19.5699   52.8564 H         1 LIG         0.0600 
     19 H1         45.8389   17.5693   54.0292 H         1 LIG         0.3300 
     20 H2         45.0547   16.9403   52.7181 H         1 LIG         0.3300 
     21 H3         46.6744   17.2235   52.6579 H         1 LIG         0.3300 
@<TRIPOS>BOND
     1    1    2 ar   
     2    1    6 ar   
     3    1    7 1    
     4    2    3 ar   
     5    2   10 1    
     6    3    4 ar   
     7    3   11 1    
     8    4    5 ar   
     9    4   12 1    
    10    5    6 ar   
    11    5   13 1    
    12    6   14 1    
    13    7    8 1    
    14    7   15 1    
    15    7   16 1    
    16    8    9 1    
    17    8   17 1    
    18    8   18 1    
    19    9   19 1    
    20    9   20 1    
    21    9   21 1    
@<TRIPOS>SUBSTRUCTURE
     1 LIG         1 GROUP             0       ****    0 ROOT    
