@<TRIPOS>MOLECULE
:3ozt_ligand
50   52    1
SMALL
USER_CHARGES


@<TRIPOS>ATOM
      1 C1         36.8190   -2.2420  -13.3020 C.3       1 LIG         0.2050 
      2 C2         36.7250   -0.7310  -13.5000 C.3       1 LIG         0.2050 
      3 C3         35.1870   -0.4930  -13.5340 C.3       1 LIG         0.2225 
      4 O4         34.7770   -1.2840  -12.3810 O.3       1 LIG        -0.4000 
      5 C5         35.6820   -2.3770  -12.1960 C.3       1 LIG         0.2390 
      6 C6         36.3030   -2.3040  -10.8470 C.2       1 LIG        -0.1840 
      7 N7         34.6790    0.8250  -13.3680 N.pl3     1 LIG        -0.1585 
      8 O8         36.4140   -2.9260  -14.4950 O.3       1 LIG        -0.6830 
      9 O9         37.3070   -0.1890  -14.7150 O.3       1 LIG        -0.6830 
     10 C10        35.9550   -3.0940   -9.8530 C.2       1 LIG        -0.1150 
     11 C11        36.5670   -3.0270   -8.4940 C.3       1 LIG         0.0800 
     12 N12        36.3410   -4.2770   -7.8230 N.am      1 LIG        -0.5000 
     13 C13        37.1230   -4.7350   -6.8520 C.2       1 LIG         0.6150 
     14 C14        36.9050   -6.0700   -6.2720 C.ar      1 LIG        -0.1150 
     15 C15        35.7090   -6.8370   -6.5060 C.ar      1 LIG         0.1500 
     16 C16        35.6640   -8.1190   -5.9170 C.ar      1 LIG         0.1500 
     17 C17        36.6610   -8.7020   -5.1410 C.ar      1 LIG        -0.1150 
     18 C18        37.8530   -7.9000   -4.9910 C.ar      1 LIG         0.0900 
     19 C19        37.9060   -6.6190   -5.5530 C.ar      1 LIG        -0.1150 
     20 N20        38.9150   -8.4600   -4.1780 N.pl3     1 LIG         0.6500 
     21 O21        34.7110   -6.3380   -7.1770 O.3       1 LIG        -0.4600 
     22 O22        34.4800   -8.8300   -6.1310 O.3       1 LIG        -0.4600 
     23 O23        38.0800   -3.9910   -6.4330 O.2       1 LIG        -0.5000 
     24 O24        38.7400   -9.4520   -3.5530 O.co2     1 LIG        -0.3700 
     25 O25        39.9890   -7.8820   -4.1620 O.co2     1 LIG        -0.3700 
     26 C26        35.2910    1.6810  -12.3950 C.ar      1 LIG        -0.0970 
     27 C27        34.8290    2.9540  -12.1770 C.ar      1 LIG        -0.1150 
     28 C28        33.7380    3.4990  -12.9630 C.ar      1 LIG         0.4700 
     29 C29        33.5930    1.3290  -14.0550 C.ar      1 LIG        -0.0970 
     30 C30        33.1080    2.5660  -13.9250 C.ar      1 LIG        -0.1150 
     31 O31        33.4060    4.6720  -12.8580 O.2       1 LIG        -0.4700 
     32 H1         37.8015   -2.5884  -12.9789 H         1 LIG         0.0600 
     33 H2         37.1847   -0.2340  -12.6484 H         1 LIG         0.0600 
     34 H3         34.6878   -0.8726  -14.3985 H         1 LIG         0.1000 
     35 H5         35.1405   -3.3186  -12.3040 H         1 LIG         0.0300 
     36 H6         37.0693   -1.5580  -10.6957 H         1 LIG         0.1150 
     37 HO8        35.6660   -2.4821  -14.8727 H         1 LIG         0.4180 
     38 HO9        36.7845   -0.4623  -15.4655 H         1 LIG         0.4180 
     39 H10        35.1749   -3.8267  -10.0063 H         1 LIG         0.1150 
     40 H111       36.1516   -2.2105   -7.9136 H         1 LIG         0.0600 
     41 H112       37.6325   -2.8198   -8.6134 H         1 LIG         0.0600 
     42 HN12       35.6040   -4.8738   -8.1713 H         1 LIG         0.3000 
     43 H17        36.5692   -9.7002   -4.7473 H         1 LIG         0.1150 
     44 H19        38.8148   -6.0561   -5.3928 H         1 LIG         0.1150 
     45 HO21       33.9999   -6.9390   -7.3340 H         1 LIG         0.3100 
     46 HO22       34.4177   -9.5192   -5.4928 H         1 LIG         0.3100 
     47 H26        36.0927    1.3184  -11.7756 H         1 LIG         0.1150 
     48 H27        35.2485    3.5849  -11.4169 H         1 LIG         0.1150 
     49 H29        33.0835    0.6516  -14.7071 H         1 LIG         0.1150 
     50 H30        32.2441    2.8937  -14.4853 H         1 LIG         0.1150 
@<TRIPOS>BOND
     1    1    2 1    
     2    1    5 1    
     3    1    8 1    
     4    1   32 1    
     5    2    3 1    
     6    2    9 1    
     7    2   33 1    
     8    3    4 1    
     9    3    7 1    
    10    3   34 1    
    11    4    5 1    
    12    5    6 1    
    13    5   35 1    
    14    6   10 2    
    15    6   36 1    
    16    7   26 ar   
    17    7   29 ar   
    18    8   37 1    
    19    9   38 1    
    20   10   11 1    
    21   10   39 1    
    22   11   12 1    
    23   11   40 1    
    24   11   41 1    
    25   12   13 am   BACKBONE|DICT|INTERRES
    26   12   42 1    
    27   13   14 1    
    28   13   23 2    
    29   14   15 ar   
    30   14   19 ar   
    31   15   16 ar   
    32   15   21 1    
    33   16   17 ar   
    34   16   22 1    
    35   17   18 ar   
    36   17   43 1    
    37   18   19 ar   
    38   18   20 1    
    39   19   44 1    
    40   20   24 1    
    41   20   25 2    
    42   21   45 1    
    43   22   46 1    
    44   26   27 ar   
    45   26   47 1    
    46   27   28 ar   
    47   27   48 1    
    48   28   30 ar   
    49   28   31 2    
    50   29   30 ar   
    51   29   49 1    
    52   30   50 1    
@<TRIPOS>SUBSTRUCTURE
     1 LIG         1 GROUP             0       ****    0 ROOT    
