:3ozt_ligand
                    3D
 Schrodinger Suite 2020-1.
 50 52  0  0  1  0            999 V2000
   36.8190   -2.2420  -13.3020 C   0  0  1  0  0  0
   36.7250   -0.7310  -13.5000 C   0  0  2  0  0  0
   35.1870   -0.4930  -13.5340 C   0  0  1  0  0  0
   34.7770   -1.2840  -12.3810 O   0  0  0  0  0  0
   35.6820   -2.3770  -12.1960 C   0  0  2  0  0  0
   36.3030   -2.3040  -10.8470 C   0  0  0  0  0  0
   34.6790    0.8250  -13.3680 N   0  0  0  0  0  0
   36.4140   -2.9260  -14.4950 O   0  0  0  0  0  0
   37.3070   -0.1890  -14.7150 O   0  0  0  0  0  0
   35.9550   -3.0940   -9.8530 C   0  0  0  0  0  0
   36.5670   -3.0270   -8.4940 C   0  0  0  0  0  0
   36.3410   -4.2770   -7.8230 N   0  0  0  0  0  0
   37.1230   -4.7350   -6.8520 C   0  0  0  0  0  0
   36.9050   -6.0700   -6.2720 C   0  0  0  0  0  0
   35.7090   -6.8370   -6.5060 C   0  0  0  0  0  0
   35.6640   -8.1190   -5.9170 C   0  0  0  0  0  0
   36.6610   -8.7020   -5.1410 C   0  0  0  0  0  0
   37.8530   -7.9000   -4.9910 C   0  0  0  0  0  0
   37.9060   -6.6190   -5.5530 C   0  0  0  0  0  0
   38.9150   -8.4600   -4.1780 N   0  3  0  0  0  0
   34.7110   -6.3380   -7.1770 O   0  0  0  0  0  0
   34.4800   -8.8300   -6.1310 O   0  0  0  0  0  0
   38.0800   -3.9910   -6.4330 O   0  0  0  0  0  0
   38.7400   -9.4520   -3.5530 O   0  5  0  0  0  0
   39.9890   -7.8820   -4.1620 O   0  0  0  0  0  0
   35.2910    1.6810  -12.3950 C   0  0  0  0  0  0
   34.8290    2.9540  -12.1770 C   0  0  0  0  0  0
   33.7380    3.4990  -12.9630 C   0  0  0  0  0  0
   33.5930    1.3290  -14.0550 C   0  0  0  0  0  0
   33.1080    2.5660  -13.9250 C   0  0  0  0  0  0
   33.4060    4.6720  -12.8580 O   0  0  0  0  0  0
   37.8015   -2.5884  -12.9789 H   0  0  0  0  0  0
   37.1847   -0.2340  -12.6484 H   0  0  0  0  0  0
   34.6878   -0.8726  -14.3985 H   0  0  0  0  0  0
   35.1405   -3.3186  -12.3040 H   0  0  0  0  0  0
   37.0693   -1.5580  -10.6957 H   0  0  0  0  0  0
   35.6660   -2.4821  -14.8727 H   0  0  0  0  0  0
   36.7845   -0.4623  -15.4655 H   0  0  0  0  0  0
   35.1749   -3.8267  -10.0063 H   0  0  0  0  0  0
   36.1516   -2.2105   -7.9136 H   0  0  0  0  0  0
   37.6325   -2.8198   -8.6134 H   0  0  0  0  0  0
   35.6040   -4.8738   -8.1713 H   0  0  0  0  0  0
   36.5692   -9.7002   -4.7473 H   0  0  0  0  0  0
   38.8148   -6.0561   -5.3928 H   0  0  0  0  0  0
   33.9999   -6.9390   -7.3340 H   0  0  0  0  0  0
   34.4177   -9.5192   -5.4928 H   0  0  0  0  0  0
   36.0927    1.3184  -11.7756 H   0  0  0  0  0  0
   35.2485    3.5849  -11.4169 H   0  0  0  0  0  0
   33.0835    0.6516  -14.7071 H   0  0  0  0  0  0
   32.2441    2.8937  -14.4853 H   0  0  0  0  0  0
  1  2  1  0  0  0
  1  5  1  0  0  0
  1  8  1  0  0  0
  1 32  1  0  0  0
  2  3  1  0  0  0
  2  9  1  0  0  0
  2 33  1  0  0  0
  3  4  1  0  0  0
  3  7  1  0  0  0
  3 34  1  0  0  0
  4  5  1  0  0  0
  5  6  1  0  0  0
  5 35  1  0  0  0
  6 10  2  0  0  0
  6 36  1  0  0  0
  7 26  1  0  0  0
  7 29  1  0  0  0
  8 37  1  0  0  0
  9 38  1  0  0  0
 10 11  1  0  0  0
 10 39  1  0  0  0
 11 12  1  0  0  0
 11 40  1  0  0  0
 11 41  1  0  0  0
 12 13  1  0  0  0
 12 42  1  0  0  0
 13 14  1  0  0  0
 13 23  2  0  0  0
 14 15  2  0  0  0
 14 19  1  0  0  0
 15 16  1  0  0  0
 15 21  1  0  0  0
 16 17  2  0  0  0
 16 22  1  0  0  0
 17 18  1  0  0  0
 17 43  1  0  0  0
 18 19  2  0  0  0
 18 20  1  0  0  0
 19 44  1  0  0  0
 20 24  1  0  0  0
 20 25  2  0  0  0
 21 45  1  0  0  0
 22 46  1  0  0  0
 26 27  2  0  0  0
 26 47  1  0  0  0
 27 28  1  0  0  0
 27 48  1  0  0  0
 28 30  1  0  0  0
 28 31  2  0  0  0
 29 30  2  0  0  0
 29 49  1  0  0  0
 30 50  1  0  0  0
M  CHG  2  20   1  24  -1
M  END
> <s_pdb_PDB_ID>


> <s_pdb_PDB_CLASSIFICATION>
3OZT_PROTEIN

> <s_pdb_PDB_format_version>
3.0

> <b_ppw_prepared>
1

> <s_ppw_prepared_with_version>
2020-1

> <b_ppw_created_disulfur>
1

> <r_ff_Potential_Energy-OPLS3e>
-54808.0381625971

> <r_ff_RMS_Derivative-OPLS3e>
0.0466100077624641

> <b_ff_Minimization_Converged-OPLS3e>
1

> <r_i_Potential_Energy-OPLS_2005>
-5693.77611167452

> <r_i_RMS_Derivative-OPLS_2005>
0.0455198207492925

> <r_i_Max_Derivative-OPLS_2005>
0.825224303623957

> <r_i_Stretch_Energy-OPLS_2005>
5.02076876811012

> <r_i_Bend_Energy-OPLS_2005>
157.696800872795

> <r_i_LJ-14_Energy-OPLS_2005>
306.341461598611

> <r_i_El-14_Energy-OPLS_2005>
-228.185100287046

> <r_i_Van_der_Waals_Energy-OPLS_2005>
-494.387461405625

> <r_i_Electrostatic_Energy-OPLS_2005>
-5522.90231560509

> <r_i_Dihedral_Energy-OPLS_2005>
82.6397343837281

> <r_i_target_temperature>
298

> <s_user_Residue_ID>
_:1

$$$$
