@<TRIPOS>MOLECULE
:1o3f_ligand
43   46    1
SMALL
USER_CHARGES


@<TRIPOS>ATOM
      1 C1         44.2570   -3.0900   26.6230 C.ar      1 LIG        -0.0733 
      2 C2         44.6160   -1.6990   26.6140 C.ar      1 LIG        -0.0888 
      3 C3         44.5970   -0.9100   27.7630 C.ar      1 LIG        -0.3541 
      4 C4         44.2190   -1.5220   28.9120 C.ar      1 LIG         0.2860 
      5 C5         43.8760   -2.8110   28.9950 C.ar      1 LIG         0.1233 
      6 C6         43.8740   -3.6490   27.8750 C.ar      1 LIG        -0.2243 
      7 C7         44.3090   -3.8330   25.4280 C.2       1 LIG         0.6542 
      8 N1         44.0290   -5.1160   25.4280 N.pl3     1 LIG        -0.7471 
      9 N2         44.6390   -3.2350   24.3000 N.pl3     1 LIG        -0.7471 
     10 N3         44.1380   -1.0270   30.0930 N.pl3     1 LIG        -0.4786 
     11 CN4        43.5630   -3.1650   30.2360 C.ar      1 LIG        -0.2567 
     12 C8         43.7520   -2.0100   30.8460 C.ar      1 LIG         0.0857 
     13 C1'        43.4930   -1.8600   32.2100 C.ar      1 LIG         0.0000 
     14 C2'        43.2460   -2.9610   33.0230 C.ar      1 LIG        -0.1150 
     15 C3'        42.9840   -2.8260   34.3670 C.ar      1 LIG        -0.1150 
     16 C4'        42.9590   -1.5750   34.9360 C.ar      1 LIG        -0.1150 
     17 C5'        43.1980   -0.4060   34.1790 C.ar      1 LIG         0.0000 
     18 C6'        43.4640   -0.5890   32.8210 C.ar      1 LIG         0.1500 
     19 O6'        43.7270    0.5210   32.0460 O.3       1 LIG        -0.5850 
     20 C1''       43.1380    0.8680   34.7920 C.ar      1 LIG         0.0000 
     21 C2''       44.1270    1.8280   34.6310 C.ar      1 LIG        -0.1150 
     22 C3''       44.0730    3.0550   35.2570 C.ar      1 LIG        -0.1150 
     23 C4''       43.0170    3.3770   36.0720 C.ar      1 LIG        -0.1150 
     24 C5''       41.9940    2.4580   36.2690 C.ar      1 LIG        -0.1150 
     25 C6''       42.0620    1.2220   35.6310 C.ar      1 LIG        -0.1150 
     26 H2         44.9224   -1.2102   25.7027 H         1 LIG         0.1359 
     27 H3         44.8722    0.1293   27.7761 H         1 LIG         0.1796 
     28 H6         43.5943   -4.6870   27.9748 H         1 LIG         0.1699 
     29 H11        44.2139   -5.6602   24.5917 H         1 LIG         0.4600 
     30 H12        43.7516   -5.6035   26.2711 H         1 LIG         0.4600 
     31 H21        44.7931   -3.7875   23.4638 H         1 LIG         0.4600 
     32 H22        44.9334   -2.2683   24.3042 H         1 LIG         0.4600 
     33 HN3        44.3112   -0.0706   30.3793 H         1 LIG         0.3577 
     34 HN4        43.2390   -4.1351   30.5799 H         1 LIG         0.1377 
     35 H2'        43.2639   -3.9712   32.6464 H         1 LIG         0.1150 
     36 H3'        42.8051   -3.7007   34.9749 H         1 LIG         0.1150 
     37 H4'        42.7535   -1.4939   35.9936 H         1 LIG         0.1150 
     38 HO6'       43.6476    1.2982   32.5835 H         1 LIG         0.4350 
     39 CH''       45.0064    1.5996   34.0461 H         1 LIG         0.1150 
     40 CH''       44.9056    3.7206   35.2403 H         1 LIG         0.1150 
     41 CH''       42.9947    4.3287   36.5824 H         1 LIG         0.1150 
     42 CH''       41.1588    2.6994   36.9097 H         1 LIG         0.1150 
     43 CH''       41.2592    0.5173   35.7922 H         1 LIG         0.1150 
@<TRIPOS>BOND
     1    1    2 ar   
     2    1    6 ar   
     3    1    7 1    
     4    2    3 ar   
     5    2   26 1    
     6    3    4 ar   
     7    3   27 1    
     8    4    5 ar   
     9    4   10 ar   
    10    5    6 ar   
    11    5   11 ar   
    12    6   28 1    
    13    7    8 2    
    14    7    9 1    
    15    8   29 1    
    16    8   30 1    
    17    9   31 1    
    18    9   32 1    
    19   10   12 ar   
    20   10   33 1    
    21   11   12 ar   
    22   11   34 1    
    23   12   13 1    
    24   13   14 ar   
    25   13   18 ar   
    26   14   15 ar   
    27   14   35 1    
    28   15   16 ar   
    29   15   36 1    
    30   16   17 ar   
    31   16   37 1    
    32   17   18 ar   
    33   17   20 1    
    34   18   19 1    
    35   19   38 1    
    36   20   21 ar   
    37   20   25 ar   
    38   21   22 ar   
    39   21   39 1    
    40   22   23 ar   
    41   22   40 1    
    42   23   24 ar   
    43   23   41 1    
    44   24   25 ar   
    45   24   42 1    
    46   25   43 1    
@<TRIPOS>SUBSTRUCTURE
     1 LIG         1 GROUP             0       ****    0 ROOT    
