@<TRIPOS>MOLECULE
:2qe4_ligand
46   49    1
SMALL
USER_CHARGES


@<TRIPOS>ATOM
      1 C1         -6.4620    8.4360   26.6260 C.ar      1 LIG         0.1500 
      2 C2         -5.7230    8.3090   25.4190 C.ar      1 LIG        -0.1150 
      3 C3         -5.8470    7.1600   24.6240 C.ar      1 LIG        -0.0418 
      4 C4         -6.7340    6.0980   25.0240 C.ar      1 LIG         0.0850 
      5 O5         -6.8220    4.9660   24.1960 O.3       1 LIG        -0.2850 
      6 C6         -8.0640    4.2460   24.3750 C.3       1 LIG         0.2118 
      7 C8         -8.3130    3.8660   25.8760 C.3       1 LIG        -0.0600 
      8 C10        -7.1390    3.0300   26.4960 C.3       1 LIG        -0.1200 
      9 C11        -7.0820    3.4560   27.9870 C.3       1 LIG        -0.1200 
     10 C12        -8.0280    4.6520   28.1620 C.3       1 LIG        -0.1200 
     11 C13        -8.4400    5.1430   26.7400 C.3       1 LIG         0.0550 
     12 C15        -7.4740    6.2350   26.2470 C.ar      1 LIG        -0.1150 
     13 C16        -7.3310    7.4070   27.0320 C.ar      1 LIG        -0.1150 
     14 C17        -8.1190    2.9810   23.5130 C.ar      1 LIG        -0.0418 
     15 C18        -7.0150    2.5600   22.7320 C.ar      1 LIG        -0.1150 
     16 C19        -7.1120    1.3840   21.9550 C.ar      1 LIG        -0.1150 
     17 C20        -8.3140    0.6290   21.9650 C.ar      1 LIG         0.1500 
     18 O21        -8.4260   -0.5050   21.2310 O.3       1 LIG        -0.5850 
     19 C22        -9.4020    1.0510   22.7380 C.ar      1 LIG        -0.1150 
     20 C23        -9.3070    2.2150   23.5050 C.ar      1 LIG        -0.1150 
     21 C24        -5.0390    7.0700   23.3360 C.3       1 LIG         0.1818 
     22 O25        -5.9120    6.8010   22.2240 O.3       1 LIG        -0.4000 
     23 C26        -6.0140    8.0040   21.4600 C.3       1 LIG         0.1100 
     24 O27        -6.3330    9.5520   27.3890 O.3       1 LIG        -0.5850 
     25 H2         -5.0608    9.1086   25.1195 H         1 LIG         0.1150 
     26 H6         -8.8631    4.8965   24.0217 H         1 LIG         0.0300 
     27 H8         -9.2457    3.3210   25.9988 H         1 LIG         0.0600 
     28 H101       -6.1916    3.2760   26.0164 H         1 LIG         0.0600 
     29 H102       -7.2911    1.9580   26.3741 H         1 LIG         0.0600 
     30 H111       -6.0621    3.7517   28.2178 H         1 LIG         0.0600 
     31 H112       -7.3527    2.6362   28.6535 H         1 LIG         0.0600 
     32 H121       -7.6462    5.4177   28.8274 H         1 LIG         0.0600 
     33 H122       -8.9114    4.2277   28.6293 H         1 LIG         0.0600 
     34 H13        -9.4549    5.5414   26.7215 H         1 LIG         0.0600 
     35 H16        -7.9609    7.5418   27.8964 H         1 LIG         0.1150 
     36 H18        -6.0955    3.1264   22.7208 H         1 LIG         0.1150 
     37 H19        -6.2734    1.0630   21.3544 H         1 LIG         0.1150 
     38 HO21       -9.1063   -1.0677   21.5886 H         1 LIG         0.4350 
     39 H22       -10.3254    0.4947   22.7445 H         1 LIG         0.1150 
     40 H23       -10.1628    2.5329   24.0772 H         1 LIG         0.1150 
     41 H241       -4.3435    6.2406   23.4386 H         1 LIG         0.0300 
     42 H242       -4.4515    7.9778   23.2449 H         1 LIG         0.0300 
     43 H261       -6.8253    7.8911   20.7408 H         1 LIG         0.0300 
     44 H262       -6.2614    8.8553   22.0889 H         1 LIG         0.0300 
     45 H263       -5.1259    8.2160   20.8860 H         1 LIG         0.0300 
     46 HO27       -5.8495   10.2757   27.0062 H         1 LIG         0.4350 
@<TRIPOS>BOND
     1    1    2 ar   
     2    1   13 ar   
     3    1   24 1    
     4    2    3 ar   
     5    2   25 1    
     6    3    4 ar   
     7    3   21 1    
     8    4    5 1    
     9    4   12 ar   
    10    5    6 1    
    11    6    7 1    
    12    6   14 1    
    13    6   26 1    
    14    7    8 1    
    15    7   11 1    
    16    7   27 1    
    17    8    9 1    
    18    8   28 1    
    19    8   29 1    
    20    9   10 1    
    21    9   30 1    
    22    9   31 1    
    23   10   11 1    
    24   10   32 1    
    25   10   33 1    
    26   11   12 1    
    27   11   34 1    
    28   12   13 ar   
    29   13   35 1    
    30   14   15 ar   
    31   14   20 ar   
    32   15   16 ar   
    33   15   36 1    
    34   16   17 ar   
    35   16   37 1    
    36   17   18 1    
    37   17   19 ar   
    38   18   38 1    
    39   19   20 ar   
    40   19   39 1    
    41   20   40 1    
    42   21   22 1    
    43   21   41 1    
    44   21   42 1    
    45   22   23 1    
    46   23   43 1    
    47   23   44 1    
    48   23   45 1    
    49   24   46 1    
@<TRIPOS>SUBSTRUCTURE
     1 LIG         1 GROUP             0       ****    0 ROOT    
