@<TRIPOS>MOLECULE
:4ogj_ligand
74   77    1
SMALL
USER_CHARGES


@<TRIPOS>ATOM
      1 CAQ        16.3660   40.7830   26.0320 C.3       1 LIG         0.1500 
      2 CAR        16.0390   39.5760   26.9220 C.3       1 LIG        -0.1200 
      3 CAS        14.6750   40.0980   27.4500 C.3       1 LIG        -0.1200 
      4 CAT        13.9770   40.8290   26.3220 C.3       1 LIG         0.1500 
      5 NAP        15.0750   41.1650   25.3940 N.4       1 LIG        -0.1000 
      6 CAO        15.0390   42.5890   25.0660 C.3       1 LIG        -0.0744 
      7 CAN        16.1540   43.0060   24.1010 C.3       1 LIG         0.3644 
      8 OAM        16.2570   41.9690   23.1340 O.3       1 LIG        -0.2850 
      9 CAJ        17.4280   41.8820   22.3580 C.ar      1 LIG         0.0850 
     10 CAK        18.3930   42.8500   22.2380 C.ar      1 LIG        -0.1150 
     11 CAL        19.5120   42.6530   21.4410 C.ar      1 LIG        -0.1150 
     12 CAI        17.6020   40.6720   21.7010 C.ar      1 LIG        -0.1150 
     13 CAH        18.7150   40.5170   20.8620 C.ar      1 LIG        -0.1150 
     14 CAG        19.7180   41.4490   20.7600 C.ar      1 LIG         0.2000 
     15 NAF        20.8280   41.4090   19.9570 N.pl3     1 LIG        -0.7043 
     16 C2         21.3930   40.2960   19.4730 C.ar      1 LIG         0.9663 
     17 N3         21.1450   39.0590   19.9450 N.ar      1 LIG        -0.8390 
     18 N1         22.3240   40.5310   18.5200 N.ar      1 LIG        -0.8390 
     19 C6         22.9800   39.4080   17.9880 C.ar      1 LIG         0.6530 
     20 C5         22.7440   38.0960   18.4490 C.ar      1 LIG        -0.6070 
     21 CAA        23.5020   36.9870   17.8280 C.3       1 LIG        -0.0650 
     22 C4         21.7840   37.9670   19.4810 C.ar      1 LIG         0.8640 
     23 NAW        21.5480   36.7200   19.8930 N.pl3     1 LIG        -0.7800 
     24 CAX        20.7330   36.3850   20.9870 C.ar      1 LIG         0.2000 
     25 CBC        20.1410   37.2390   21.9540 C.ar      1 LIG        -0.1150 
     26 CAY        20.5560   35.0020   21.1370 C.ar      1 LIG        -0.1150 
     27 CAZ        19.7990   34.4590   22.1730 C.ar      1 LIG        -0.1150 
     28 CBA        19.2610   35.3030   23.1180 C.ar      1 LIG        -0.1150 
     29 CBB        19.4420   36.6660   23.0220 C.ar      1 LIG         0.1567 
     30 SBD        18.6310   37.7370   24.1920 S.o2      1 LIG         0.8327 
     31 OBJ        18.8030   37.1200   25.5590 O.2       1 LIG        -0.4680 
     32 OBK        17.2760   38.0190   23.5850 O.2       1 LIG        -0.4680 
     33 NBE        19.3570   39.1460   24.0860 N.pl3     1 LIG        -0.6527 
     34 CBF        20.5620   39.4550   24.8570 C.3       1 LIG         0.1320 
     35 CBH        21.6680   38.3590   24.7280 C.3       1 LIG        -0.1433 
     36 CBI        20.2790   39.7390   26.3370 C.3       1 LIG        -0.1433 
     37 CBG        21.0400   40.7650   24.2340 C.3       1 LIG        -0.1433 
     38 HAQ1       17.1253   40.5430   25.2874 H         1 LIG         0.0600 
     39 HAQ2       16.7499   41.5955   26.6522 H         1 LIG         0.0600 
     40 HAR1       16.7766   39.3990   27.7052 H         1 LIG         0.0600 
     41 HAR2       15.9161   38.6688   26.3288 H         1 LIG         0.0600 
     42 HAS1       14.8565   40.7957   28.2692 H         1 LIG         0.0600 
     43 HAS2       14.0606   39.2927   27.8535 H         1 LIG         0.0600 
     44 HAT1       13.4241   41.6925   26.6964 H         1 LIG         0.0600 
     45 HAT2       13.2677   40.1768   25.8120 H         1 LIG         0.0600 
     46 HNAP       14.9559   40.6007   24.5583 H         1 LIG         0.2900 
     47 HAO1       15.0816   43.2036   25.9670 H         1 LIG         0.0600 
     48 HAO2       14.0784   42.7946   24.5910 H         1 LIG         0.0600 
     49 HAN1       17.0923   43.1128   24.6477 H         1 LIG         0.0300 
     50 HAN2       15.9304   43.9622   23.6266 H         1 LIG         0.0300 
     51 HAK        18.2876   43.7980   22.7434 H         1 LIG         0.1150 
     52 HAL        20.2378   43.4499   21.3639 H         1 LIG         0.1150 
     53 HAI        16.8600   39.8910   21.7757 H         1 LIG         0.1150 
     54 HAH        18.7659   39.5979   20.3004 H         1 LIG         0.1150 
     55 HNAF       21.2572   42.2870   19.6933 H         1 LIG         0.3800 
     56 H6         23.7041   39.6072   17.2114 H         1 LIG         0.0110 
     57 HAA1       22.8278   36.2230   17.4412 H         1 LIG         0.0600 
     58 HAA2       24.1259   37.3303   17.0020 H         1 LIG         0.0600 
     59 HAA3       24.1540   36.5251   18.5691 H         1 LIG         0.0600 
     60 HNAW       22.0354   35.9720   19.4185 H         1 LIG         0.3800 
     61 HBC        20.2394   38.3058   21.9343 H         1 LIG         0.1150 
     62 HAY        20.9861   34.3224   20.4164 H         1 LIG         0.1150 
     63 HAZ        19.6596   33.3907   22.2477 H         1 LIG         0.1150 
     64 HBA        18.6787   34.8936   23.9304 H         1 LIG         0.1150 
     65 HNBE       19.2912   39.5920   23.1721 H         1 LIG         0.3572 
     66 HBH1       22.5543   38.6177   25.3084 H         1 LIG         0.0600 
     67 HBH2       21.3214   37.3884   25.0671 H         1 LIG         0.0600 
     68 HBH3       21.9873   38.2409   23.6944 H         1 LIG         0.0600 
     69 HBI1       21.1616   40.1390   26.8376 H         1 LIG         0.0600 
     70 HBI2       19.4776   40.4688   26.4560 H         1 LIG         0.0600 
     71 HBI3       19.9900   38.8432   26.8841 H         1 LIG         0.0600 
     72 HBG1       21.9414   41.1311   24.7268 H         1 LIG         0.0600 
     73 HBG2       21.2834   40.6403   23.1775 H         1 LIG         0.0600 
     74 HBG3       20.2870   41.5510   24.3094 H         1 LIG         0.0600 
@<TRIPOS>BOND
     1    1    2 1    
     2    1    5 1    
     3    1   38 1    
     4    1   39 1    
     5    2    3 1    
     6    2   40 1    
     7    2   41 1    
     8    3    4 1    
     9    3   42 1    
    10    3   43 1    
    11    4    5 1    
    12    4   44 1    
    13    4   45 1    
    14    5    6 1    
    15    5   46 1    
    16    6    7 1    
    17    6   47 1    
    18    6   48 1    
    19    7    8 1    
    20    7   49 1    
    21    7   50 1    
    22    8    9 1    
    23    9   10 ar   
    24    9   12 ar   
    25   10   11 ar   
    26   10   51 1    
    27   11   14 ar   
    28   11   52 1    
    29   12   13 ar   
    30   12   53 1    
    31   13   14 ar   
    32   13   54 1    
    33   14   15 1    
    34   15   16 1    
    35   15   55 1    
    36   16   17 ar   
    37   16   18 ar   
    38   17   22 ar   
    39   18   19 ar   
    40   19   20 ar   
    41   19   56 1    
    42   20   21 1    
    43   20   22 ar   
    44   21   57 1    
    45   21   58 1    
    46   21   59 1    
    47   22   23 1    
    48   23   24 1    
    49   23   60 1    
    50   24   25 ar   
    51   24   26 ar   
    52   25   29 ar   
    53   25   61 1    
    54   26   27 ar   
    55   26   62 1    
    56   27   28 ar   
    57   27   63 1    
    58   28   29 ar   
    59   28   64 1    
    60   29   30 1    
    61   30   31 2    
    62   30   32 2    
    63   30   33 1    
    64   33   34 1    
    65   33   65 1    
    66   34   35 1    
    67   34   36 1    
    68   34   37 1    
    69   35   66 1    
    70   35   67 1    
    71   35   68 1    
    72   36   69 1    
    73   36   70 1    
    74   36   71 1    
    75   37   72 1    
    76   37   73 1    
    77   37   74 1    
@<TRIPOS>SUBSTRUCTURE
     1 LIG         1 GROUP             0       ****    0 ROOT    
