@<TRIPOS>MOLECULE
:3ui7_ligand
46   49    1
SMALL
USER_CHARGES


@<TRIPOS>ATOM
      1 C5          4.7120   11.6700   41.9390 C.ar      1 LIG        -0.1150 
      2 C14         4.2680   13.1580   40.0810 C.ar      1 LIG        -0.1150 
      3 C2          4.3290   12.6840   42.8390 C.ar      1 LIG        -0.2190 
      4 C3          3.9330   13.4970   45.0860 C.ar      1 LIG        -0.3506 
      5 C9          3.8750   14.2240   40.9500 C.ar      1 LIG        -0.1596 
      6 C1          4.3360   12.4260   44.2450 C.ar      1 LIG         0.1770 
      7 C4          3.8950   13.9890   42.3430 C.ar      1 LIG         0.4566 
      8 C10         4.7180   11.8920   40.5600 C.ar      1 LIG         0.0850 
      9 C7          3.7670   13.7350   46.4610 C.ar      1 LIG         0.0560 
     10 C6          3.5790   14.7200   44.4830 C.ar      1 LIG         0.7116 
     11 C20         6.9260    9.6660   44.6200 C.3       1 LIG         0.0900 
     12 C24         7.2050   12.0610   45.1010 C.3       1 LIG         0.0900 
     13 C21         8.3270    9.6300   44.0100 C.3       1 LIG         0.1400 
     14 C23         8.5980   11.9670   44.4980 C.3       1 LIG         0.1400 
     15 C17         3.4510   15.5810   40.3610 C.3       1 LIG        -0.0650 
     16 C13         4.0890   12.8090   47.5840 C.3       1 LIG        -0.0650 
     17 C16         6.2930   10.1990   39.9390 C.3       1 LIG         0.1100 
     18 C18         4.8860   11.1080   44.7910 C.3       1 LIG         0.2050 
     19 N8          3.5030   14.9990   43.1550 N.ar      1 LIG        -0.6780 
     20 N11         3.2560   15.5600   45.4880 N.2       1 LIG        -0.5310 
     21 N12         3.3640   15.0060   46.6920 N.pl3     1 LIG        -0.1490 
     22 N19         6.3640   11.0150   44.5020 N.3       1 LIG        -0.6300 
     23 O22         9.1580   10.6270   44.5950 O.3       1 LIG        -0.4000 
     24 O15         5.1110   10.9470   39.6320 O.3       1 LIG        -0.2850 
     25 H5          5.0104   10.6946   42.2860 H         1 LIG         0.1150 
     26 H14         4.2344   13.3310   39.0199 H         1 LIG         0.1150 
     27 H201        6.9620    9.3713   45.6695 H         1 LIG         0.0600 
     28 H202        6.2871    8.9460   44.1075 H         1 LIG         0.0600 
     29 H241        6.7894   13.0493   44.9180 H         1 LIG         0.0600 
     30 H242        7.2500   11.9262   46.1820 H         1 LIG         0.0600 
     31 H211        8.2746    9.7938   42.9323 H         1 LIG         0.0300 
     32 H212        8.7828    8.6516   44.1617 H         1 LIG         0.0300 
     33 H231        9.2773   12.6461   45.0118 H         1 LIG         0.0300 
     34 H232        8.5782   12.2656   43.4517 H         1 LIG         0.0300 
     35 H171        2.4451   15.8493   40.6856 H         1 LIG         0.0600 
     36 H172        4.1462   16.3458   40.7002 H         1 LIG         0.0600 
     37 H173        3.4662   15.5654   39.2711 H         1 LIG         0.0600 
     38 H131        4.0103   13.3200   48.5420 H         1 LIG         0.0600 
     39 H132        3.3874   11.9798   47.6146 H         1 LIG         0.0600 
     40 H133        5.1050   12.4230   47.5069 H         1 LIG         0.0600 
     41 H161        6.6410    9.6864   39.0424 H         1 LIG         0.0300 
     42 H162        7.0979   10.8480   40.2861 H         1 LIG         0.0300 
     43 H163        6.0962    9.4430   40.6996 H         1 LIG         0.0300 
     44 H181        4.3476   10.2771   44.3349 H         1 LIG         0.0600 
     45 H182        4.7280   11.0286   45.8595 H         1 LIG         0.0600 
     46 HN12        3.1793   15.4843   47.5631 H         1 LIG         0.3410 
@<TRIPOS>BOND
     1    1    3 ar   
     2    1    8 ar   
     3    1   25 1    
     4    2    5 ar   
     5    2    8 ar   
     6    2   26 1    
     7    3    6 ar   
     8    3    7 ar   
     9    4    6 ar   
    10    4    9 ar   
    11    4   10 ar   
    12    5    7 ar   
    13    5   15 1    
    14    6   18 1    
    15    7   19 ar   
    16    8   24 1    
    17    9   16 1    
    18    9   21 ar   
    19   10   19 ar   
    20   10   20 ar   
    21   11   13 1    
    22   11   22 1    
    23   11   27 1    
    24   11   28 1    
    25   12   14 1    
    26   12   22 1    
    27   12   29 1    
    28   12   30 1    
    29   13   23 1    
    30   13   31 1    
    31   13   32 1    
    32   14   23 1    
    33   14   33 1    
    34   14   34 1    
    35   15   35 1    
    36   15   36 1    
    37   15   37 1    
    38   16   38 1    
    39   16   39 1    
    40   16   40 1    
    41   17   24 1    
    42   17   41 1    
    43   17   42 1    
    44   17   43 1    
    45   18   22 1    
    46   18   44 1    
    47   18   45 1    
    48   20   21 ar   
    49   21   46 1    
@<TRIPOS>SUBSTRUCTURE
     1 LIG         1 GROUP             0       ****    0 ROOT    
