@<TRIPOS>MOLECULE
:3rlr_ligand
35   37    1
SMALL
USER_CHARGES


@<TRIPOS>ATOM
      1 N1         17.4370   -1.9070   49.6060 N.ar      1 LIG        -0.8345 
      2 N3         17.2740    0.3930   48.8600 N.pl3     1 LIG        -0.5489 
      3 C4         15.5890   -0.3350   50.1480 C.ar      1 LIG        -0.2363 
      4 C5         15.3590    1.0360   49.7960 C.ar      1 LIG        -0.1359 
      5 C6         16.4090    1.4600   48.9960 C.ar      1 LIG         0.0392 
      6 C7         17.3730   -4.1950   50.4820 C.3       1 LIG        -0.0650 
      7 C8         13.6830   -1.2970   51.5960 C.ar      1 LIG         0.0000 
      8 C10        11.2160   -1.0170   51.6170 C.ar      1 LIG        -0.1150 
      9 C13        13.6450   -1.4550   53.0100 C.ar      1 LIG        -0.1150 
     10 C15        14.2520    1.8660   50.1830 C.1       1 LIG         0.3950 
     11 C12        12.4180   -1.4000   53.7460 C.ar      1 LIG         0.0850 
     12 C9         12.4390   -1.0690   50.9070 C.ar      1 LIG         0.1800 
     13 C11        11.2060   -1.1860   53.0220 C.ar      1 LIG         0.1800 
     14 C2         14.9630   -1.3840   50.8970 C.ar      1 LIG         0.4953 
     15 C3         16.8050   -0.6940   49.5440 C.ar      1 LIG         0.7933 
     16 C1         16.7640   -2.8290   50.3480 C.ar      1 LIG         0.6224 
     17 C16        16.6870    2.7640   48.3490 C.3       1 LIG        -0.0650 
     18 C14        13.4710   -1.7550   55.9190 C.3       1 LIG         0.1100 
     19 N4         13.3650    2.5150   50.5400 N.1       1 LIG        -0.4300 
     20 N2         15.5770   -2.6260   50.9800 N.ar      1 LIG        -0.7904 
     21 O1         12.3000   -1.5410   55.1170 O.3       1 LIG        -0.2850 
     22 CL2        12.3710   -0.8450   49.1780 Cl        1 LIG        -0.1800 
     23 CL1         9.6740   -1.1240   53.8170 Cl        1 LIG        -0.1800 
     24 HN3        18.1592    0.4623   48.3557 H         1 LIG         0.4008 
     25 H71        16.6623   -4.9096   50.8986 H         1 LIG         0.0600 
     26 H72        17.6981   -4.5690   49.5109 H         1 LIG         0.0600 
     27 H73        18.2373   -4.1568   51.1439 H         1 LIG         0.0600 
     28 H10        10.2935   -0.8429   51.0847 H         1 LIG         0.1150 
     29 H13        14.5771   -1.6220   53.5290 H         1 LIG         0.1150 
     30 H161       15.7761    3.1998   47.9412 H         1 LIG         0.0600 
     31 H162       17.0790    3.4739   49.0720 H         1 LIG         0.0600 
     32 H163       17.3922    2.6608   47.5241 H         1 LIG         0.0600 
     33 H141       13.1853   -1.8362   56.9677 H         1 LIG         0.0300 
     34 H142       13.9788   -2.6773   55.6347 H         1 LIG         0.0300 
     35 H143       14.1674   -0.9206   55.8244 H         1 LIG         0.0300 
@<TRIPOS>BOND
     1    1   15 ar   
     2    1   16 ar   
     3    2    5 ar   
     4    2   15 ar   
     5    2   24 1    
     6    3    4 ar   
     7    3   14 ar   
     8    3   15 ar   
     9    4    5 ar   
    10    4   10 1    
    11    5   17 1    
    12    6   16 1    
    13    6   25 1    
    14    6   26 1    
    15    6   27 1    
    16    7    9 ar   
    17    7   12 ar   
    18    7   14 1    
    19    8   12 ar   
    20    8   13 ar   
    21    8   28 1    
    22    9   11 ar   
    23    9   29 1    
    24   10   19 3    
    25   11   13 ar   
    26   11   21 1    
    27   12   22 1    
    28   13   23 1    
    29   14   20 ar   
    30   16   20 ar   
    31   17   30 1    
    32   17   31 1    
    33   17   32 1    
    34   18   21 1    
    35   18   33 1    
    36   18   34 1    
    37   18   35 1    
@<TRIPOS>SUBSTRUCTURE
     1 LIG         1 GROUP             0       ****    0 ROOT    
