@<TRIPOS>MOLECULE
:3dxg_ligand
32   33    1
SMALL
USER_CHARGES


@<TRIPOS>ATOM
      1 N1         36.4310   -2.0220   12.0930 N.pl3     1 LIG        -0.6000 
      2 C2         35.2270   -2.2090   11.4130 C.ar      1 LIG         0.5000 
      3 N3         34.5610   -3.3480   11.5830 N.pl3     1 LIG        -0.5100 
      4 C4         35.0030   -4.3250   12.4040 C.ar      1 LIG         0.4500 
      5 C5         36.2070   -4.1680   13.0920 C.ar      1 LIG        -0.0700 
      6 C6         36.9110   -2.9820   12.9070 C.ar      1 LIG         0.0800 
      7 O2         34.7830   -1.3140   10.6750 O.2       1 LIG        -0.4000 
      8 O4         34.3250   -5.3690   12.5290 O.2       1 LIG        -0.4200 
      9 C1'        37.1410   -0.7760   11.8600 C.3       1 LIG         0.5100 
     10 C2'        36.7510    0.2970   12.8470 C.3       1 LIG         0.2050 
     11 O2'        36.6010    1.4830   12.0570 O.3       1 LIG        -0.6830 
     12 C3'        37.9640    0.3940   13.7420 C.3       1 LIG         0.2050 
     13 C4'        39.1090    0.0400   12.8080 C.3       1 LIG         0.1700 
     14 O3'        38.1200    1.6790   14.3480 O.3       1 LIG        -0.6830 
     15 O4'        38.5510   -0.9850   11.9760 O.3       1 LIG        -0.4000 
     16 C5'        40.3430   -0.4530   13.5540 C.3       1 LIG         0.0800 
     17 O5'        40.0240   -1.7430   14.0570 O.3       1 LIG        -0.7600 
     18 P          41.0170   -2.5700   15.0150 P.3       1 LIG         1.9199 
     19 O1P        41.4160   -1.5950   16.1050 O.co2     1 LIG        -1.1200 
     20 O2P        42.1530   -2.9990   14.1100 O.co2     1 LIG        -1.1200 
     21 O3P        40.1370   -3.7160   15.4570 O.co2     1 LIG        -1.1200 
     22 HN3        33.7028   -3.4968   11.0616 H         1 LIG         0.3600 
     23 H5         36.5808   -4.9379   13.7513 H         1 LIG         0.1000 
     24 H6         37.8385   -2.8484   13.4425 H         1 LIG         0.1000 
     25 H1'        37.0015   -0.5052   10.8103 H         1 LIG         0.1000 
     26 H2'        35.8191    0.0689   13.3466 H         1 LIG         0.0600 
     27 HO2'       35.8788    1.3556   11.4615 H         1 LIG         0.4180 
     28 H3'        37.8835   -0.3587   14.5283 H         1 LIG         0.0600 
     29 H4'        39.3592    0.8989   12.1830 H         1 LIG         0.0300 
     30 HO3'       37.5816    1.7008   15.1258 H         1 LIG         0.4180 
     31 H5'1       40.6251    0.2312   14.3550 H         1 LIG         0.0600 
     32 H5'2       41.1909   -0.5414   12.8745 H         1 LIG         0.0600 
@<TRIPOS>BOND
     1    1    2 ar   
     2    1    6 ar   
     3    1    9 1    
     4    2    3 ar   
     5    2    7 2    
     6    3    4 ar   
     7    3   22 1    
     8    4    5 ar   
     9    4    8 2    
    10    5    6 ar   
    11    5   23 1    
    12    6   24 1    
    13    9   10 1    
    14    9   15 1    
    15    9   25 1    
    16   10   11 1    
    17   10   12 1    
    18   10   26 1    
    19   11   27 1    
    20   12   13 1    
    21   12   14 1    
    22   12   28 1    
    23   13   15 1    
    24   13   16 1    
    25   13   29 1    
    26   14   30 1    
    27   16   17 1    
    28   16   31 1    
    29   16   32 1    
    30   17   18 1    
    31   18   19 2    
    32   18   20 1    
    33   18   21 1    
@<TRIPOS>SUBSTRUCTURE
     1 LIG         1 GROUP             0       ****    0 ROOT    
