:3dxg_ligand
                    3D
 Schrodinger Suite 2020-1.
 32 33  0  0  1  0            999 V2000
   36.4310   -2.0220   12.0930 N   0  0  0  0  0  0
   35.2270   -2.2090   11.4130 C   0  0  0  0  0  0
   34.5610   -3.3480   11.5830 N   0  0  0  0  0  0
   35.0030   -4.3250   12.4040 C   0  0  0  0  0  0
   36.2070   -4.1680   13.0920 C   0  0  0  0  0  0
   36.9110   -2.9820   12.9070 C   0  0  0  0  0  0
   34.7830   -1.3140   10.6750 O   0  0  0  0  0  0
   34.3250   -5.3690   12.5290 O   0  0  0  0  0  0
   37.1410   -0.7760   11.8600 C   0  0  1  0  0  0
   36.7510    0.2970   12.8470 C   0  0  2  0  0  0
   36.6010    1.4830   12.0570 O   0  0  0  0  0  0
   37.9640    0.3940   13.7420 C   0  0  1  0  0  0
   39.1090    0.0400   12.8080 C   0  0  2  0  0  0
   38.1200    1.6790   14.3480 O   0  0  0  0  0  0
   38.5510   -0.9850   11.9760 O   0  0  0  0  0  0
   40.3430   -0.4530   13.5540 C   0  0  0  0  0  0
   40.0240   -1.7430   14.0570 O   0  0  0  0  0  0
   41.0170   -2.5700   15.0150 P   0  0  0  0  0  0
   41.4160   -1.5950   16.1050 O   0  0  0  0  0  0
   42.1530   -2.9990   14.1100 O   0  5  0  0  0  0
   40.1370   -3.7160   15.4570 O   0  5  0  0  0  0
   33.7028   -3.4968   11.0616 H   0  0  0  0  0  0
   36.5808   -4.9379   13.7513 H   0  0  0  0  0  0
   37.8385   -2.8484   13.4425 H   0  0  0  0  0  0
   37.0015   -0.5052   10.8103 H   0  0  0  0  0  0
   35.8191    0.0689   13.3466 H   0  0  0  0  0  0
   35.8788    1.3556   11.4615 H   0  0  0  0  0  0
   37.8835   -0.3587   14.5283 H   0  0  0  0  0  0
   39.3592    0.8989   12.1830 H   0  0  0  0  0  0
   37.5816    1.7008   15.1258 H   0  0  0  0  0  0
   40.6251    0.2312   14.3550 H   0  0  0  0  0  0
   41.1909   -0.5414   12.8745 H   0  0  0  0  0  0
  1  2  1  0  0  0
  1  6  1  0  0  0
  1  9  1  0  0  0
  2  3  1  0  0  0
  2  7  2  0  0  0
  3  4  1  0  0  0
  3 22  1  0  0  0
  4  5  1  0  0  0
  4  8  2  0  0  0
  5  6  2  0  0  0
  5 23  1  0  0  0
  6 24  1  0  0  0
  9 10  1  0  0  0
  9 15  1  0  0  0
  9 25  1  0  0  0
 10 11  1  0  0  0
 10 12  1  0  0  0
 10 26  1  0  0  0
 11 27  1  0  0  0
 12 13  1  0  0  0
 12 14  1  0  0  0
 12 28  1  0  0  0
 13 15  1  0  0  0
 13 16  1  0  0  0
 13 29  1  0  0  0
 14 30  1  0  0  0
 16 17  1  0  0  0
 16 31  1  0  0  0
 16 32  1  0  0  0
 17 18  1  0  0  0
 18 19  2  0  0  0
 18 20  1  0  0  0
 18 21  1  0  0  0
M  CHG  2  20  -1  21  -1
M  END
> <s_pdb_PDB_ID>


> <s_pdb_PDB_CLASSIFICATION>
3DXG_PROTEIN

> <s_pdb_PDB_format_version>
3.0

> <b_ppw_prepared>
1

> <s_ppw_prepared_with_version>
2020-1

> <b_ppw_created_disulfur>
1

> <s_ppw_het_states>
eJxdkkEOgzAMBL+COFMUB0NIv1LxA9RbT4i/N9hpR4EDGjaQjUccvfTP7lUukSkOXdiG7sIJVHAGFzCBK5j/qAEUkDalTWlT2pQ2pU1pU9pm2ubS9pDK0fh6qKP6lHW5BukWXEcXlLiNNiiHiJhySYIvV9UGmU+WX23ElWuSJmAPWzN7bcAshmayDTiYrTWbesD4hmZYkO2eBeVuOzaB3N+wk5YkjJJS2fboo8pa/row5rxO59C9P/vu9207vwOQiKQ=

> <r_ff_Potential_Energy-OPLS3e>
-87448.9202463166

> <r_ff_RMS_Derivative-OPLS3e>
0.0398785075002091

> <b_ff_Minimization_Converged-OPLS3e>
1

> <r_i_Potential_Energy-OPLS_2005>
-3449.69899392242

> <r_i_RMS_Derivative-OPLS_2005>
0.0472129123299063

> <r_i_Max_Derivative-OPLS_2005>
0.580180193466234

> <r_i_Stretch_Energy-OPLS_2005>
3.69160944272131

> <r_i_Bend_Energy-OPLS_2005>
73.8097992195789

> <r_i_LJ-14_Energy-OPLS_2005>
171.405813940961

> <r_i_El-14_Energy-OPLS_2005>
-102.501864300471

> <r_i_Van_der_Waals_Energy-OPLS_2005>
-207.244338943567

> <r_i_Electrostatic_Energy-OPLS_2005>
-3421.12236896518

> <r_i_Dihedral_Energy-OPLS_2005>
32.2623556835401

> <r_i_target_temperature>
298

> <s_user_Residue_ID>
_:1

$$$$
