@<TRIPOS>MOLECULE
:4ty7_ligand
66   70    1
SMALL
USER_CHARGES


@<TRIPOS>ATOM
      1 C13        43.3180  -20.7680   29.2950 C.ar      1 LIG        -0.2511 
      2 C18        37.0790  -16.9450   29.4050 C.3       1 LIG        -0.1200 
      3 C17        38.9840  -18.4880   28.9910 C.2       1 LIG         0.5000 
      4 C16        41.2260  -20.6240   28.6660 C.ar      1 LIG         0.2380 
      5 C15        43.2270  -20.4720   27.9460 C.ar      1 LIG        -0.0235 
      6 C19        38.9440  -16.2560   27.7610 C.3       1 LIG        -0.1200 
      7 C20        36.2080  -15.7740   28.9140 C.3       1 LIG        -0.1200 
      8 C21        38.0230  -15.1310   27.2390 C.3       1 LIG        -0.1200 
      9 C22        38.1240  -17.4130   28.3800 C.3       1 LIG        -0.0600 
     10 C23        37.0820  -14.6190   28.3540 C.3       1 LIG        -0.0600 
     11 C24        39.2740  -22.1150   28.0390 C.3       1 LIG        -0.0050 
     12 C11        40.0950  -23.3030   28.5160 C.ar      1 LIG        -0.1150 
     13 C12        46.7530  -20.9130   30.6750 C.ar      1 LIG         0.2996 
     14 C1         41.7000  -25.3960   29.4660 C.ar      1 LIG        -0.1150 
     15 C2         41.9320  -24.8620   28.1820 C.ar      1 LIG        -0.1150 
     16 C3         40.6800  -24.8740   30.2660 C.ar      1 LIG        -0.1150 
     17 C4         45.3250  -22.3170   32.0620 C.ar      1 LIG        -0.1150 
     18 C5         44.2460  -21.9410   31.2400 C.ar      1 LIG        -0.1150 
     19 C6         41.1300  -23.8120   27.7140 C.ar      1 LIG        -0.1150 
     20 C7         39.9030  -23.8090   29.8100 C.ar      1 LIG        -0.1150 
     21 C8         45.6840  -20.4920   29.8720 C.ar      1 LIG        -0.1150 
     22 C9         46.6050  -21.7960   31.7550 C.ar      1 LIG        -0.1316 
     23 C10        44.4280  -21.0580   30.1580 C.ar      1 LIG         0.5111 
     24 C14        47.9210  -21.9250   32.2790 C.ar      1 LIG         0.3710 
     25 C25        36.2000  -13.4510   27.8680 C.3       1 LIG         0.1900 
     26 C26        39.7200  -20.8100   28.7620 C.3       1 LIG         0.2550 
     27 N27        48.8150  -21.2250   31.5820 N.pl3     1 LIG        -0.1490 
     28 N28        41.9160  -20.3620   27.5820 N.pl3     1 LIG        -0.2570 
     29 N29        48.0880  -20.6060   30.6310 N.2       1 LIG        -0.5310 
     30 N30        42.0350  -20.9460   29.7090 N.2       1 LIG        -0.5630 
     31 N31        48.2080  -22.7050   33.3540 N.pl3     1 LIG        -0.9200 
     32 N32        37.0110  -12.3380   27.4490 N.4       1 LIG        -0.3000 
     33 N33        38.9810  -19.6620   28.2840 N.am      1 LIG        -0.5000 
     34 O34        39.5960  -18.3250   30.0530 O.2       1 LIG        -0.5000 
     35 CL1        44.4780  -20.1680   26.7930 Cl        1 LIG        -0.0755 
     36 H181       36.4164  -17.7689   29.6692 H         1 LIG         0.0600 
     37 H182       37.5754  -16.6348   30.3267 H         1 LIG         0.0600 
     38 H191       39.6078  -15.8474   28.5097 H         1 LIG         0.0600 
     39 H192       39.5772  -16.6260   26.9536 H         1 LIG         0.0600 
     40 H201       35.5742  -15.4114   29.7224 H         1 LIG         0.0600 
     41 H202       35.5376  -16.1257   28.1395 H         1 LIG         0.0600 
     42 H211       37.4349  -15.4959   26.3954 H         1 LIG         0.0600 
     43 H212       38.6481  -14.3250   26.8543 H         1 LIG         0.0600 
     44 H22        37.5574  -17.8560   27.5581 H         1 LIG         0.0600 
     45 H23        37.7013  -14.2565   29.1742 H         1 LIG         0.0600 
     46 H241       38.2139  -22.3128   28.0935 H         1 LIG         0.0600 
     47 H242       39.4591  -21.9926   26.9711 H         1 LIG         0.0600 
     48 H1         42.3097  -26.2100   29.8268 H         1 LIG         0.1150 
     49 H2         42.7230  -25.2585   27.5630 H         1 LIG         0.1150 
     50 H3         40.5139  -25.2800   31.2527 H         1 LIG         0.1150 
     51 H4         45.1676  -23.0031   32.8748 H         1 LIG         0.1150 
     52 H5         43.2765  -22.3710   31.4420 H         1 LIG         0.1150 
     53 H6         41.3155  -23.3984   26.7337 H         1 LIG         0.1150 
     54 H7         39.1335  -23.4021   30.4479 H         1 LIG         0.1150 
     55 H8         45.8436  -19.7991   29.0614 H         1 LIG         0.1150 
     56 H251       35.5463  -13.1110   28.6718 H         1 LIG         0.0600 
     57 H252       35.5597  -13.7662   27.0496 H         1 LIG         0.0600 
     58 H26        39.5186  -20.9323   29.8130 H         1 LIG         0.0600 
     59 HN27       49.8127  -21.1267   31.7040 H         1 LIG         0.3410 
     60 HN28       41.5519  -20.1553   26.6634 H         1 LIG         0.3060 
     61 H311       49.1289  -22.7511   33.7660 H         1 LIG         0.3600 
     62 H312       47.4782  -23.1254   33.9200 H         1 LIG         0.3600 
     63 H321       36.4306  -11.5244   27.2784 H         1 LIG         0.3300 
     64 H322       37.6620  -12.1017   28.1880 H         1 LIG         0.3300 
     65 H323       37.5211  -12.5655   26.6049 H         1 LIG         0.3300 
     66 HN33       38.4416  -19.7460   27.4346 H         1 LIG         0.3000 
@<TRIPOS>BOND
     1    1    5 ar   
     2    1   23 1    
     3    1   30 ar   
     4    2    7 1    
     5    2    9 1    
     6    2   36 1    
     7    2   37 1    
     8    3    9 1    
     9    3   33 am   BACKBONE|DICT|INTERRES
    10    3   34 2    
    11    4   26 1    
    12    4   28 ar   
    13    4   30 ar   
    14    5   28 ar   
    15    5   35 1    
    16    6    8 1    
    17    6    9 1    
    18    6   38 1    
    19    6   39 1    
    20    7   10 1    
    21    7   40 1    
    22    7   41 1    
    23    8   10 1    
    24    8   42 1    
    25    8   43 1    
    26    9   44 1    
    27   10   25 1    
    28   10   45 1    
    29   11   12 1    
    30   11   26 1    
    31   11   46 1    
    32   11   47 1    
    33   12   19 ar   
    34   12   20 ar   
    35   13   21 ar   
    36   13   22 ar   
    37   13   29 ar   
    38   14   15 ar   
    39   14   16 ar   
    40   14   48 1    
    41   15   19 ar   
    42   15   49 1    
    43   16   20 ar   
    44   16   50 1    
    45   17   18 ar   
    46   17   22 ar   
    47   17   51 1    
    48   18   23 ar   
    49   18   52 1    
    50   19   53 1    
    51   20   54 1    
    52   21   23 ar   
    53   21   55 1    
    54   22   24 ar   
    55   24   27 ar   
    56   24   31 1    
    57   25   32 1    
    58   25   56 1    
    59   25   57 1    
    60   26   33 1    
    61   26   58 1    
    62   27   29 ar   
    63   27   59 1    
    64   28   60 1    
    65   31   61 1    
    66   31   62 1    
    67   32   63 1    
    68   32   64 1    
    69   32   65 1    
    70   33   66 1    
@<TRIPOS>SUBSTRUCTURE
     1 LIG         1 GROUP             0       ****    0 ROOT    
