@<TRIPOS>MOLECULE
:2cbv_ligand
26   27    1
SMALL
USER_CHARGES


@<TRIPOS>ATOM
      1 O2          0.5890   12.8770   10.4180 O.3       1 LIG        -0.6830 
      2 C2          0.0470   11.6450    9.9450 C.3       1 LIG         0.5550 
      3 N1         -1.0440   11.1990   10.7870 N.4       1 LIG        -0.2000 
      4 C8          1.0120   10.4680   10.0590 C.3       1 LIG        -0.1200 
      5 C7          0.1160    9.2460   10.2830 C.3       1 LIG        -0.1200 
      6 C6         -1.3000    9.8280   10.4470 C.3       1 LIG         0.2300 
      7 C3         -0.4540   11.7630    8.4880 C.3       1 LIG         0.2050 
      8 O3          0.6860   12.0520    7.6640 O.3       1 LIG        -0.6830 
      9 C4         -1.1870   10.4680    8.0340 C.3       1 LIG         0.2050 
     10 O4         -1.9360   10.6990    6.8430 O.3       1 LIG        -0.6830 
     11 C5         -2.0920    9.8960    9.1280 C.3       1 LIG         0.2050 
     12 O5         -2.5690    8.5760    8.7990 O.3       1 LIG        -0.6830 
     13 HO2        -0.0815   13.5578   10.4265 H         1 LIG         0.4180 
     14 H11        -1.8471   11.8124   10.6930 H         1 LIG         0.3100 
     15 H12        -0.7111   11.2420   11.7470 H         1 LIG         0.3100 
     16 H81         1.7422   10.6456   10.8249 H         1 LIG         0.0600 
     17 H82         1.5801   10.3462    9.1425 H         1 LIG         0.0600 
     18 H71         0.4170    8.7418   11.2012 H         1 LIG         0.0600 
     19 H72         0.1903    8.5021    9.4893 H         1 LIG         0.0600 
     20 H6         -1.8731    9.3351   11.2333 H         1 LIG         0.0600 
     21 H3         -1.1438   12.6068    8.4270 H         1 LIG         0.0600 
     22 HO3         0.3826   12.3898    6.8303 H         1 LIG         0.4180 
     23 H4         -0.4429    9.7237    7.7543 H         1 LIG         0.0600 
     24 HO4        -2.2070    9.8669    6.4630 H         1 LIG         0.4180 
     25 H5         -2.9702   10.5315    9.2579 H         1 LIG         0.0600 
     26 HO5        -2.1117    8.2439    8.0329 H         1 LIG         0.4180 
@<TRIPOS>BOND
     1    1    2 1    
     2    1   13 1    
     3    2    3 1    
     4    2    4 1    
     5    2    7 1    
     6    3    6 1    
     7    3   14 1    
     8    3   15 1    
     9    4    5 1    
    10    4   16 1    
    11    4   17 1    
    12    5    6 1    
    13    5   18 1    
    14    5   19 1    
    15    6   11 1    
    16    6   20 1    
    17    7    8 1    
    18    7    9 1    
    19    7   21 1    
    20    8   22 1    
    21    9   10 1    
    22    9   11 1    
    23    9   23 1    
    24   10   24 1    
    25   11   12 1    
    26   11   25 1    
    27   12   26 1    
@<TRIPOS>SUBSTRUCTURE
     1 LIG         1 GROUP             0       ****    0 ROOT    
