@<TRIPOS>MOLECULE
:2fvd_ligand
51   53    1
SMALL
USER_CHARGES


@<TRIPOS>ATOM
      1 N1          6.0060   26.4970    6.9800 N.pl3     1 LIG        -0.5376 
      2 C2          5.2280   26.2350    5.7370 C.3       1 LIG         0.0588 
      3 C3          4.4250   27.4970    5.3560 C.3       1 LIG        -0.0833 
      4 C4          3.4740   27.9120    6.5080 C.3       1 LIG         0.1400 
      5 C5          4.2630   28.0220    7.8590 C.3       1 LIG        -0.0833 
      6 C6          5.0840   26.7430    8.1290 C.3       1 LIG         0.0588 
      7 N7          2.8530   29.1930    6.1450 N.pl3     1 LIG        -0.7043 
      8 C8          1.7690   29.5320    6.9000 C.ar      1 LIG         0.9663 
      9 N9          1.0690   28.5960    7.5970 N.ar      1 LIG        -0.8390 
     10 C10         0.0490   28.9490    8.3170 C.ar      1 LIG         0.6530 
     11 C11        -0.4000   30.3250    8.4220 C.ar      1 LIG        -0.6070 
     12 C12         0.3640   31.2870    7.6590 C.ar      1 LIG         0.8640 
     13 N13         1.4370   30.8560    6.9140 N.ar      1 LIG        -0.8390 
     14 C14        -1.5430   30.6550    9.2600 C.2       1 LIG         0.7000 
     15 O15        -1.9700   31.8210    9.3190 O.2       1 LIG        -0.4700 
     16 C16        -2.1970   29.6470   10.0640 C.ar      1 LIG        -0.1150 
     17 C17        -3.5480   29.2590    9.7500 C.ar      1 LIG         0.1300 
     18 C18        -4.2120   28.2570   10.5240 C.ar      1 LIG         0.1300 
     19 C19        -3.5480   27.6250   11.6160 C.ar      1 LIG        -0.1150 
     20 C20        -2.2140   27.9920   11.9500 C.ar      1 LIG        -0.1150 
     21 C21        -1.5100   29.0040   11.1890 C.ar      1 LIG         0.0850 
     22 O22        -0.1880   29.4010   11.4900 O.3       1 LIG        -0.2850 
     23 C23         0.5550   28.3980   12.2270 C.3       1 LIG         0.1100 
     24 F24        -4.2020   29.8250    8.7400 F         1 LIG        -0.1300 
     25 F25        -5.4500   27.9070   10.2290 F         1 LIG        -0.1300 
     26 N26         0.0830   32.6030    7.6390 N.pl3     1 LIG        -0.9200 
     27 S27         7.0630   25.2110    7.3100 S.o2      1 LIG         0.9349 
     28 C28         6.1790   23.6620    7.7100 C.3       1 LIG        -0.5305 
     29 O29         7.8710   25.5860    8.4490 O.2       1 LIG        -0.4680 
     30 O30         7.9110   25.0020    6.1680 O.2       1 LIG        -0.4680 
     31 H21         4.5622   25.3828    5.8795 H         1 LIG         0.0733 
     32 H22         5.9051   25.9857    4.9196 H         1 LIG         0.0733 
     33 H31         3.8532   27.3127    4.4457 H         1 LIG         0.0600 
     34 H32         5.1194   28.3064    5.1287 H         1 LIG         0.0600 
     35 H4          2.7333   27.1223    6.5974 H         1 LIG         0.0600 
     36 H51         3.5827   28.1991    8.6916 H         1 LIG         0.0600 
     37 H52         4.9395   28.8777    7.8223 H         1 LIG         0.0600 
     38 H61         5.6612   26.8684    9.0422 H         1 LIG         0.0733 
     39 H62         4.4228   25.8885    8.2770 H         1 LIG         0.0733 
     40 HN7         3.4530   29.9490    5.8340 H         1 LIG         0.3800 
     41 H10        -0.4469   28.1374    8.8276 H         1 LIG         0.0110 
     42 H19        -4.0611   26.8732   12.1977 H         1 LIG         0.1150 
     43 H20        -1.7607   27.4955   12.7944 H         1 LIG         0.1150 
     44 H231        1.5917   28.7236   12.2447 H         1 LIG         0.0300 
     45 H232        0.2102   28.3304   13.2527 H         1 LIG         0.0300 
     46 H233        0.5167   27.4164   11.7524 H         1 LIG         0.0300 
     47 H261        0.5776   33.2569    7.0459 H         1 LIG         0.3600 
     48 H262       -0.7150   32.9624    8.1443 H         1 LIG         0.3600 
     49 H281        6.9063   22.8751    7.9058 H         1 LIG         0.1950 
     50 H282        5.5709   23.8100    8.6027 H         1 LIG         0.1950 
     51 H283        5.5440   23.3702    6.8746 H         1 LIG         0.1950 
@<TRIPOS>BOND
     1    1    2 1    
     2    1    6 1    
     3    1   27 1    
     4    2    3 1    
     5    2   31 1    
     6    2   32 1    
     7    3    4 1    
     8    3   33 1    
     9    3   34 1    
    10    4    5 1    
    11    4    7 1    
    12    4   35 1    
    13    5    6 1    
    14    5   36 1    
    15    5   37 1    
    16    6   38 1    
    17    6   39 1    
    18    7    8 1    
    19    7   40 1    
    20    8    9 ar   
    21    8   13 ar   
    22    9   10 ar   
    23   10   11 ar   
    24   10   41 1    
    25   11   12 ar   
    26   11   14 1    
    27   12   13 ar   
    28   12   26 1    
    29   14   15 2    
    30   14   16 1    
    31   16   17 ar   
    32   16   21 ar   
    33   17   18 ar   
    34   17   24 1    
    35   18   19 ar   
    36   18   25 1    
    37   19   20 ar   
    38   19   42 1    
    39   20   21 ar   
    40   20   43 1    
    41   21   22 1    
    42   22   23 1    
    43   23   44 1    
    44   23   45 1    
    45   23   46 1    
    46   26   47 1    
    47   26   48 1    
    48   27   28 1    
    49   27   29 2    
    50   27   30 2    
    51   28   49 1    
    52   28   50 1    
    53   28   51 1    
@<TRIPOS>SUBSTRUCTURE
     1 LIG         1 GROUP             0       ****    0 ROOT    
