@<TRIPOS>MOLECULE
:2weg_ligand
16   16    1
SMALL
USER_CHARGES


@<TRIPOS>ATOM
      1 C1         17.1360    6.0810   14.2900 C.ar      1 LIG        -0.1150 
      2 C2         15.7580    6.0500   14.4810 C.ar      1 LIG        -0.1150 
      3 C3         15.1360    5.0390   15.2330 C.ar      1 LIG        -0.1150 
      4 C4         15.9330    3.9930   15.7820 C.ar      1 LIG         0.1567 
      5 C5         17.3440    4.1100   15.5410 C.ar      1 LIG         0.2200 
      6 C6         17.9340    5.1140   14.8250 C.ar      1 LIG        -0.1150 
      7 S          15.2380    2.6850   16.7310 S.o2      1 LIG         0.8943 
      8 N2         15.7140    1.3040   16.0720 N.2       1 LIG        -1.3250 
      9 O1         15.8190    2.8490   18.0770 O.2       1 LIG        -0.4680 
     10 O2         13.8330    2.8260   16.5560 O.2       1 LIG        -0.4680 
     11 F          18.1030    3.1530   16.1200 F         1 LIG        -0.2200 
     12 H1         17.5787    6.8832   13.7179 H         1 LIG         0.1150 
     13 H2         15.1495    6.8334   14.0526 H         1 LIG         0.1150 
     14 H3         14.0689    5.0584   15.3845 H         1 LIG         0.1150 
     15 H6         19.0054    5.1440   14.6926 H         1 LIG         0.1150 
     16 HN2        16.4253    1.4799   15.3521 H         1 LIG         0.2100 
@<TRIPOS>BOND
     1    1    2 ar   
     2    1    6 ar   
     3    1   12 1    
     4    2    3 ar   
     5    2   13 1    
     6    3    4 ar   
     7    3   14 1    
     8    4    5 ar   
     9    4    7 1    
    10    5    6 ar   
    11    5   11 1    
    12    6   15 1    
    13    7    8 1    
    14    7    9 2    
    15    7   10 2    
    16    8   16 1    
@<TRIPOS>SUBSTRUCTURE
     1 LIG         1 GROUP             0       ****    0 ROOT    
