@<TRIPOS>MOLECULE
:1e66_ligand
41   44    1
SMALL
USER_CHARGES


@<TRIPOS>ATOM
      1 N1          5.9600   69.5810   65.3090 N.pl3     1 LIG        -0.4537 
      2 N2          1.8860   69.4300   66.4690 N.pl3     1 LIG        -0.9200 
      3 C1          6.3780   70.6350   68.8450 C.ar      1 LIG         0.4160 
      4 C2          6.6700   70.2770   67.4340 C.ar      1 LIG        -0.4661 
      5 C3          5.5690   69.9500   66.6660 C.ar      1 LIG         0.4796 
      6 C4          4.9750   69.1980   64.4700 C.ar      1 LIG         0.2852 
      7 C5          5.5190   68.7840   62.9970 C.3       1 LIG        -0.0050 
      8 C6          4.5270   67.8800   62.2460 C.3       1 LIG        -0.0600 
      9 C7          4.2820   66.4050   62.9960 C.2       1 LIG        -0.1150 
     10 C8          3.3050   66.0890   63.8490 C.2       1 LIG         0.0000 
     11 C9          2.3030   67.1800   64.1500 C.3       1 LIG        -0.1200 
     12 C10         4.3940   63.6190   64.1310 C.3       1 LIG        -0.1800 
     13 C11         2.6210   68.6020   63.7090 C.3       1 LIG         0.0550 
     14 C12         3.1710   68.5550   62.2170 C.3       1 LIG        -0.1200 
     15 C13         3.6230   69.1100   64.7520 C.ar      1 LIG        -0.2166 
     16 C14         3.2280   69.5120   66.1460 C.ar      1 LIG         0.4334 
     17 C15         4.2480   69.9120   67.0430 C.ar      1 LIG         0.0061 
     18 C16         3.9130   70.3030   68.4610 C.ar      1 LIG        -0.1879 
     19 C17         4.9340   70.6300   69.2740 C.ar      1 LIG        -0.1576 
     20 C18         3.2790   64.6360   64.4660 C.3       1 LIG        -0.1200 
     21 CL1         7.5600   70.9960   69.9590 Cl        1 LIG        -0.1800 
     22 HN1         6.9379   69.6110   65.0070 H         1 LIG         0.4004 
     23 H21         1.5382   69.7736   67.3529 H         1 LIG         0.3600 
     24 H22         1.1918   69.2248   65.7649 H         1 LIG         0.3600 
     25 H2          7.6777   70.2500   67.0540 H         1 LIG         0.2340 
     26 H51         6.4883   68.2912   63.0793 H         1 LIG         0.0600 
     27 H52         5.6759   69.6964   62.4225 H         1 LIG         0.0600 
     28 H6          4.8682   67.6879   61.2331 H         1 LIG         0.0600 
     29 H7          5.0338   65.6747   62.7463 H         1 LIG         0.1150 
     30 H91         2.1171   67.1365   65.2223 H         1 LIG         0.0600 
     31 H92         1.3393   66.9066   63.7260 H         1 LIG         0.0600 
     32 H101        4.2424   62.6965   64.6863 H         1 LIG         0.0600 
     33 H102        4.4079   63.3722   63.0698 H         1 LIG         0.0600 
     34 H103        5.3694   64.0173   64.3990 H         1 LIG         0.0600 
     35 H11         1.7223   69.2184   63.7461 H         1 LIG         0.0600 
     36 H121        2.4759   68.0213   61.5680 H         1 LIG         0.0600 
     37 H122        3.2633   69.5605   61.8080 H         1 LIG         0.0600 
     38 H16         2.8976   70.3008   68.8303 H         1 LIG         0.1942 
     39 H17         4.7044   70.8806   70.2994 H         1 LIG         0.1830 
     40 H181        2.3138   64.1937   64.2282 H         1 LIG         0.0600 
     41 H182        3.2674   64.7666   65.5483 H         1 LIG         0.0600 
@<TRIPOS>BOND
     1    1    5 ar   
     2    1    6 ar   
     3    1   22 1    
     4    2   16 1    
     5    2   23 1    
     6    2   24 1    
     7    3    4 ar   
     8    3   19 ar   
     9    3   21 1    
    10    4    5 ar   
    11    4   25 1    
    12    5   17 ar   
    13    6   15 ar   
    14    6    7 1    
    15    7    8 1    
    16    7   26 1    
    17    7   27 1    
    18    8   14 1    
    19    8    9 1    
    20    8   28 1    
    21    9   10 2    
    22    9   29 1    
    23   10   20 1    
    24   10   11 1    
    25   11   13 1    
    26   11   30 1    
    27   11   31 1    
    28   12   20 1    
    29   12   32 1    
    30   12   33 1    
    31   12   34 1    
    32   13   15 1    
    33   13   14 1    
    34   13   35 1    
    35   14   36 1    
    36   14   37 1    
    37   15   16 ar   
    38   16   17 ar   
    39   17   18 ar   
    40   18   19 ar   
    41   18   38 1    
    42   19   39 1    
    43   20   40 1    
    44   20   41 1    
@<TRIPOS>SUBSTRUCTURE
     1 LIG         1 GROUP             0       ****    0 ROOT    
