@<TRIPOS>MOLECULE
:3pyy_ligand
38   41    1
SMALL
USER_CHARGES


@<TRIPOS>ATOM
      1 C1         18.1090   11.8270  -38.0900 C.ar      1 LIG        -0.1150 
      2 C2         16.7900   11.5600  -38.3780 C.ar      1 LIG        -0.1150 
      3 C3         18.7680   11.1360  -37.0980 C.ar      1 LIG        -0.1150 
      4 C4         15.6560    5.0160  -33.7600 C.ar      1 LIG        -0.1150 
      5 C5         17.3200    6.4920  -32.8980 C.ar      1 LIG        -0.1150 
      6 C6         16.1170   10.5900  -37.6700 C.ar      1 LIG        -0.1150 
      7 C7         18.1050   10.1660  -36.3810 C.ar      1 LIG        -0.1150 
      8 C8         16.0930    4.0380  -32.8930 C.ar      1 LIG        -0.1150 
      9 C9         17.7540    5.5080  -32.0270 C.ar      1 LIG        -0.1150 
     10 C10        14.7680    8.7890  -35.8810 C.ar      1 LIG         0.0360 
     11 C11        16.2680    6.2470  -33.7640 C.ar      1 LIG        -0.0454 
     12 C12        14.5540    7.7250  -35.0330 C.ar      1 LIG        -0.2850 
     13 C13        16.7930    9.9100  -36.6890 C.ar      1 LIG         0.0731 
     14 C14        17.1380    4.2780  -32.0300 C.ar      1 LIG         0.2200 
     15 C15        15.8540    7.2950  -34.6530 C.ar      1 LIG         0.3834 
     16 C16        12.6630    6.2580  -35.6600 C.2       1 LIG         0.6305 
     17 C17        11.2160    7.9820  -35.5040 C.2       1 LIG         0.7530 
     18 C18        13.2470    7.1860  -34.6250 C.3       1 LIG         0.1775 
     19 N19        16.8040    8.0430  -35.2290 N.2       1 LIG        -0.5310 
     20 N20        16.1220    8.9300  -35.9620 N.pl3     1 LIG         0.1189 
     21 N21        11.5100    6.8060  -36.1320 N.am      1 LIG        -0.5362 
     22 N22        12.2590    8.2460  -34.6560 N.am      1 LIG        -0.5362 
     23 O23        13.1240    5.1740  -35.9740 O.2       1 LIG        -0.5080 
     24 O24        10.2160    8.6570  -35.6920 O.2       1 LIG        -0.5080 
     25 F25        17.5460    3.3010  -31.1790 F         1 LIG        -0.2200 
     26 H1         18.6343   12.5878  -38.6485 H         1 LIG         0.1150 
     27 H2         16.2861   12.1052  -39.1624 H         1 LIG         0.1150 
     28 H3         19.8020   11.3591  -36.8785 H         1 LIG         0.1150 
     29 H4         14.8634    4.7852  -34.4446 H         1 LIG         0.1150 
     30 H5         17.8034    7.4563  -32.8777 H         1 LIG         0.1150 
     31 H6         15.0918   10.3826  -37.9333 H         1 LIG         0.1150 
     32 H7         18.6328    9.6420  -35.5991 H         1 LIG         0.1150 
     33 H8         15.6344    3.0639  -32.8827 H         1 LIG         0.1150 
     34 H9         18.5699    5.6964  -31.3473 H         1 LIG         0.1150 
     35 H10        14.0582    9.4235  -36.3889 H         1 LIG         0.1350 
     36 H18        13.2593    6.7031  -33.6495 H         1 LIG         0.0600 
     37 HN21       10.9060    6.3622  -36.8122 H         1 LIG         0.2912 
     38 HN22       12.3079    9.0563  -34.0562 H         1 LIG         0.2912 
@<TRIPOS>BOND
     1    1    2 ar   
     2    1    3 ar   
     3    1   26 1    
     4    2    6 ar   
     5    2   27 1    
     6    3    7 ar   
     7    3   28 1    
     8    4    8 ar   
     9    4   11 ar   
    10    4   29 1    
    11    5    9 ar   
    12    5   11 ar   
    13    5   30 1    
    14    6   13 ar   
    15    6   31 1    
    16    7   13 ar   
    17    7   32 1    
    18    8   14 ar   
    19    8   33 1    
    20    9   14 ar   
    21    9   34 1    
    22   10   12 ar   
    23   10   20 ar   
    24   10   35 1    
    25   11   15 1    
    26   12   15 ar   
    27   12   18 1    
    28   13   20 1    
    29   14   25 1    
    30   15   19 ar   
    31   16   18 1    
    32   16   21 am   BACKBONE|DICT|INTERRES
    33   16   23 2    
    34   17   21 am   BACKBONE|DICT|INTERRES
    35   17   22 am   BACKBONE|DICT|INTERRES
    36   17   24 2    
    37   18   22 1    
    38   18   36 1    
    39   19   20 ar   
    40   21   37 1    
    41   22   38 1    
@<TRIPOS>SUBSTRUCTURE
     1 LIG         1 GROUP             0       ****    0 ROOT    
