@<TRIPOS>MOLECULE
:4djv_ligand
50   53    1
SMALL
USER_CHARGES


@<TRIPOS>ATOM
      1 O1         22.8640   12.9180   22.1510 O.2       1 LIG        -0.5000 
      2 C1         22.7760   11.7400   22.4370 C.2       1 LIG         0.6225 
      3 C2         22.5330   10.5520   21.4300 C.3       1 LIG         0.5630 
      4 N1         22.6980    9.3620   22.3290 N.pl3     1 LIG        -0.5282 
      5 C3         22.8530    9.7820   23.5950 C.cat     1 LIG         0.5687 
      6 N2         22.9440   11.2000   23.6910 N.am      1 LIG        -0.0184 
      7 N3         22.9790    8.9880   24.6570 N.pl3     1 LIG        -0.9138 
      8 C4         23.1800   11.9990   24.9000 C.3       1 LIG        -0.0090 
      9 C5         21.1000   10.5960   20.8630 C.ar      1 LIG        -0.1150 
     10 C6         20.3420    9.4330   20.7660 C.ar      1 LIG        -0.1150 
     11 C7         19.0400    9.4670   20.2690 C.ar      1 LIG        -0.1150 
     12 C8         18.4810   10.6590   19.8700 C.ar      1 LIG        -0.1150 
     13 C9         19.2200   11.8240   19.9540 C.ar      1 LIG        -0.1150 
     14 C10        20.5250   11.7940   20.4410 C.ar      1 LIG        -0.1150 
     15 C11        23.6440   10.6010   20.3640 C.ar      1 LIG        -0.1150 
     16 C12        23.3550   10.8820   19.0310 C.ar      1 LIG        -0.1150 
     17 C13        24.3740   11.0650   18.1080 C.ar      1 LIG        -0.1150 
     18 C14        25.6940   10.9560   18.5040 C.ar      1 LIG        -0.1150 
     19 C15        26.0150   10.6440   19.8290 C.ar      1 LIG         0.0000 
     20 C16        24.9770   10.4620   20.7510 C.ar      1 LIG        -0.1150 
     21 C17        29.9970   10.4940   21.4150 C.ar      1 LIG        -0.1150 
     22 C18        27.7730    9.5760   21.2460 C.ar      1 LIG        -0.1150 
     23 C19        27.4290   10.5160   20.2730 C.ar      1 LIG         0.0000 
     24 C20        28.4120   11.4120   19.8460 C.ar      1 LIG        -0.1150 
     25 C21        29.6820   11.4000   20.4130 C.ar      1 LIG        -0.1150 
     26 C22        29.0400    9.5690   21.8180 C.ar      1 LIG         0.0850 
     27 O2         29.2030    8.6170   22.7950 O.3       1 LIG        -0.2850 
     28 C23        30.4090    8.6530   23.5740 C.3       1 LIG         0.1100 
     29 HN1        22.5501    8.3944   22.0482 H         1 LIG         0.3451 
     30 H31        23.1547    9.3506   25.5920 H         1 LIG         0.4600 
     31 H32        22.9856    7.9769   24.5256 H         1 LIG         0.4600 
     32 H41        22.7605   11.5064   25.7764 H         1 LIG         0.0600 
     33 H42        24.2517   12.1256   25.0469 H         1 LIG         0.0600 
     34 H43        22.7270   12.9883   24.8260 H         1 LIG         0.0600 
     35 H6         20.7344    8.4763   21.0588 H         1 LIG         0.1150 
     36 H7         18.4679    8.5532   20.2015 H         1 LIG         0.1150 
     37 H8         17.4706   10.6863   19.4938 H         1 LIG         0.1150 
     38 H9         18.7766   12.7527   19.6464 H         1 LIG         0.1150 
     39 H10        21.0729   12.7230   20.4672 H         1 LIG         0.1150 
     40 H12        22.3425   10.9995   18.6810 H         1 LIG         0.1150 
     41 H13        24.1341   11.3013   17.0817 H         1 LIG         0.1150 
     42 H14        26.4778   11.1168   17.7792 H         1 LIG         0.1150 
     43 H16        25.2047   10.2509   21.7788 H         1 LIG         0.1150 
     44 H17        30.9843   10.5217   21.8497 H         1 LIG         0.1150 
     45 H18        27.0386    8.8725   21.6048 H         1 LIG         0.1150 
     46 H20        28.1153   12.1713   19.1487 H         1 LIG         0.1150 
     47 H21        30.4180   12.1250   20.0985 H         1 LIG         0.1150 
     48 H231       30.4248    7.8251   24.2802 H         1 LIG         0.0300 
     49 H232       31.3105    8.5833   22.9675 H         1 LIG         0.0300 
     50 H233       30.4565    9.5766   24.1492 H         1 LIG         0.0300 
@<TRIPOS>BOND
     1    1    2 2    
     2    2    3 1    
     3    2    6 am   BACKBONE|DICT|INTERRES
     4    3    4 1    
     5    3    9 1    
     6    3   15 1    
     7    4    5 ar   
     8    4   29 1    
     9    5    6 1    
    10    5    7 ar   
    11    6    8 1    
    12    7   30 1    
    13    7   31 1    
    14    8   32 1    
    15    8   33 1    
    16    8   34 1    
    17    9   10 ar   
    18    9   14 ar   
    19   10   11 ar   
    20   10   35 1    
    21   11   12 ar   
    22   11   36 1    
    23   12   13 ar   
    24   12   37 1    
    25   13   14 ar   
    26   13   38 1    
    27   14   39 1    
    28   15   16 ar   
    29   15   20 ar   
    30   16   17 ar   
    31   16   40 1    
    32   17   18 ar   
    33   17   41 1    
    34   18   19 ar   
    35   18   42 1    
    36   19   20 ar   
    37   19   23 1    
    38   20   43 1    
    39   21   25 ar   
    40   21   26 ar   
    41   21   44 1    
    42   22   23 ar   
    43   22   26 ar   
    44   22   45 1    
    45   23   24 ar   
    46   24   25 ar   
    47   24   46 1    
    48   25   47 1    
    49   26   27 1    
    50   27   28 1    
    51   28   48 1    
    52   28   49 1    
    53   28   50 1    
@<TRIPOS>SUBSTRUCTURE
     1 LIG         1 GROUP             0       ****    0 ROOT    
