@<TRIPOS>MOLECULE
:4kzq_ligand
28   30    1
SMALL
USER_CHARGES


@<TRIPOS>ATOM
      1 C1         -4.7040   34.8160  -15.4720 C.ar      1 LIG        -0.1150 
      2 C2         -5.4300   35.5340  -16.4320 C.ar      1 LIG        -0.1150 
      3 C3         -6.3170   36.5300  -16.0180 C.ar      1 LIG        -0.1150 
      4 C4         -6.5080   36.7960  -14.6600 C.ar      1 LIG        -0.1150 
      5 C5         -5.7450   36.0990  -13.7170 C.ar      1 LIG         0.0850 
      6 C6         -4.8660   35.0910  -14.1000 C.ar      1 LIG        -0.1150 
      7 C7         -7.3940   37.8070  -14.2210 C.2       1 LIG         0.5850 
      8 C8         -7.4040   38.1620  -12.8750 C.2       1 LIG        -0.1150 
      9 C9         -6.6210   37.4900  -11.9480 C.2       1 LIG         0.0850 
     10 O1         -5.8740   36.4190  -12.3780 O.3       1 LIG        -0.1700 
     11 C10        -6.5890   37.7580  -10.5240 C.ar      1 LIG         0.0000 
     12 C11        -7.3920   38.7290   -9.9060 C.ar      1 LIG        -0.1150 
     13 C12        -7.3550   38.9940   -8.5400 C.ar      1 LIG        -0.1150 
     14 C13        -6.4910   38.2290   -7.7530 C.ar      1 LIG         0.1500 
     15 C14        -5.6950   37.2350   -8.3190 C.ar      1 LIG        -0.1150 
     16 C15        -5.7360   37.0060   -9.6930 C.ar      1 LIG        -0.1150 
     17 O2         -8.1940   38.3750  -14.9900 O.2       1 LIG        -0.4700 
     18 O4         -6.4250   38.4280   -6.4290 O.3       1 LIG        -0.5850 
     19 H1         -4.0095   34.0509  -15.7792 H         1 LIG         0.1150 
     20 H2         -5.2696   35.3213  -17.4768 H         1 LIG         0.1150 
     21 H3         -6.8618   37.0970  -16.7567 H         1 LIG         0.1150 
     22 H6         -4.2964   34.5484  -13.3598 H         1 LIG         0.1150 
     23 H8         -7.9966   39.0149  -12.6022 H         1 LIG         0.1150 
     24 H11        -8.0256   39.3630  -10.4955 H         1 LIG         0.1150 
     25 H12        -7.9729   39.7663   -8.1060 H         1 LIG         0.1150 
     26 H14        -5.0339   36.6449   -7.7021 H         1 LIG         0.1150 
     27 H15        -5.1079   36.2320  -10.1060 H         1 LIG         0.1150 
     28 HO4        -5.7471   37.9219   -6.0097 H         1 LIG         0.4350 
@<TRIPOS>BOND
     1    1    2 ar   
     2    1    6 ar   
     3    1   19 1    
     4    2    3 ar   
     5    2   20 1    
     6    3    4 ar   
     7    3   21 1    
     8    4    5 ar   
     9    4    7 1    
    10    5    6 ar   
    11    5   10 1    
    12    6   22 1    
    13    7    8 1    
    14    7   17 2    
    15    8    9 2    
    16    8   23 1    
    17    9   10 1    
    18    9   11 1    
    19   11   12 ar   
    20   11   16 ar   
    21   12   13 ar   
    22   12   24 1    
    23   13   14 ar   
    24   13   25 1    
    25   14   15 ar   
    26   14   18 1    
    27   15   16 ar   
    28   15   26 1    
    29   16   27 1    
    30   18   28 1    
@<TRIPOS>SUBSTRUCTURE
     1 LIG         1 GROUP             0       ****    0 ROOT    
