@<TRIPOS>MOLECULE
:5c2h_ligand
55   58    1
SMALL
USER_CHARGES


@<TRIPOS>ATOM
      1 C3          9.0710   38.3270   60.3690 C.ar      1 LIG         0.8640 
      2 C7         10.5280   39.7400   59.0730 C.3       1 LIG         0.1950 
      3 C9          8.3210   42.9120   58.5880 C.2       1 LIG         0.1859 
      4 C11        10.0830   41.9070   57.7320 C.2       1 LIG         0.1693 
      5 C12        11.1720   41.8030   56.7370 C.3       1 LIG        -0.0650 
      6 C13         7.2450   43.8960   58.8150 C.3       1 LIG        -0.0650 
      7 C15         4.7570   36.6770   56.8450 C.3       1 LIG        -0.1200 
      8 C18         3.3980   34.8030   54.1400 C.ar      1 LIG        -0.4849 
      9 C20         1.1210   35.2960   53.7410 C.ar      1 LIG        -0.1736 
     10 C21         1.0230   35.7910   55.0340 C.ar      1 LIG         0.7341 
     11 C           7.4700   37.0910   61.5220 C.ar      1 LIG         0.8440 
     12 N           6.6850   36.8940   60.4580 N.ar      1 LIG        -0.8390 
     13 O           6.5830   37.3570   58.1300 O.3       1 LIG        -0.3104 
     14 S           8.4460   41.5540   59.6200 S.3       1 LIG         0.0010 
     15 CL          6.8760   36.4220   62.9700 Cl        1 LIG        -0.1800 
     16 C1          7.2050   37.4490   59.3620 C.ar      1 LIG         0.9524 
     17 N2          8.3400   38.1370   59.2670 N.ar      1 LIG        -0.8390 
     18 C4          8.6530   37.7920   61.5600 C.ar      1 LIG        -0.6070 
     19 N5         10.2720   39.0830   60.3440 N.pl3     1 LIG        -0.7800 
     20 C6          9.4190   37.9580   62.8270 C.3       1 LIG        -0.0650 
     21 C8          9.8170   41.0080   58.7430 C.2       1 LIG        -0.2209 
     22 N10         9.2360   42.9780   57.6480 N.2       1 LIG        -0.4803 
     23 C14         5.4350   36.5230   58.1950 C.3       1 LIG         0.1400 
     24 C16         4.4230   35.2990   56.3170 C.3       1 LIG        -0.0050 
     25 C17         3.2330   35.3180   55.4110 C.ar      1 LIG         0.3705 
     26 C19         2.3210   34.7960   53.2850 C.ar      1 LIG         0.0486 
     27 N22         2.0710   35.8120   55.8720 N.ar      1 LIG        -0.7311 
     28 C23         0.0410   35.2700   52.8950 C.ar      1 LIG        -0.1673 
     29 C24        -1.1680   35.7760   53.3280 C.ar      1 LIG        -0.2060 
     30 C25        -1.2780   36.3110   54.5900 C.ar      1 LIG        -0.0433 
     31 C26        -0.1920   36.3010   55.4350 C.ar      1 LIG        -0.4407 
     32 H71        10.4145   39.0329   58.2500 H         1 LIG         0.0600 
     33 H72        11.5959   39.9588   59.0798 H         1 LIG         0.0600 
     34 H121       11.1466   42.6192   56.0138 H         1 LIG         0.0600 
     35 H122       12.1484   41.8248   57.2213 H         1 LIG         0.0600 
     36 H123       11.1027   40.8697   56.1777 H         1 LIG         0.0600 
     37 H131        7.4226   44.8019   58.2342 H         1 LIG         0.0600 
     38 H132        6.2827   43.4772   58.5210 H         1 LIG         0.0600 
     39 H133        7.1961   44.1671   59.8697 H         1 LIG         0.0600 
     40 H151        5.4244   37.1514   56.1249 H         1 LIG         0.0600 
     41 H152        3.9146   37.3598   56.9177 H         1 LIG         0.0600 
     42 H18         4.3501   34.4125   53.8110 H         1 LIG         0.1970 
     43 HN5        10.7339   39.3800   61.1911 H         1 LIG         0.3800 
     44 H61         8.7639   38.0913   63.6857 H         1 LIG         0.0600 
     45 H62        10.0374   37.0778   63.0061 H         1 LIG         0.0600 
     46 H63        10.0710   38.8307   62.8298 H         1 LIG         0.0600 
     47 H141        5.7366   35.4955   58.4110 H         1 LIG         0.0300 
     48 H142        4.7312   36.8613   58.9538 H         1 LIG         0.0300 
     49 H161        4.1492   34.6333   57.1365 H         1 LIG         0.0600 
     50 H162        5.2962   34.8508   55.8405 H         1 LIG         0.0600 
     51 H19         2.4228   34.4000   52.2848 H         1 LIG         0.1325 
     52 H23         0.1242   34.8542   51.9019 H         1 LIG         0.1528 
     53 H24        -2.0128   35.7841   52.6549 H         1 LIG         0.1554 
     54 H25        -2.2182   36.7254   54.9219 H         1 LIG         0.1388 
     55 H26        -0.2862   36.7143   56.4224 H         1 LIG         0.2022 
@<TRIPOS>BOND
     1    1   17 ar   
     2    1   18 ar   
     3    1   19 1    
     4    2   19 1    
     5    2   21 1    
     6    2   32 1    
     7    2   33 1    
     8    3    6 1    
     9    3   14 1    
    10    3   22 2    
    11    4    5 1    
    12    4   21 2    
    13    4   22 1    
    14    5   34 1    
    15    5   35 1    
    16    5   36 1    
    17    6   37 1    
    18    6   38 1    
    19    6   39 1    
    20    7   23 1    
    21    7   24 1    
    22    7   40 1    
    23    7   41 1    
    24    8   25 ar   
    25    8   26 ar   
    26    8   42 1    
    27    9   10 ar   
    28    9   26 ar   
    29    9   28 ar   
    30   10   27 ar   
    31   10   31 ar   
    32   11   12 ar   
    33   11   15 1    
    34   11   18 ar   
    35   12   16 ar   
    36   13   16 1    
    37   13   23 1    
    38   14   21 1    
    39   16   17 ar   
    40   18   20 1    
    41   19   43 1    
    42   20   44 1    
    43   20   45 1    
    44   20   46 1    
    45   23   47 1    
    46   23   48 1    
    47   24   25 1    
    48   24   49 1    
    49   24   50 1    
    50   25   27 ar   
    51   26   51 1    
    52   28   29 ar   
    53   28   52 1    
    54   29   30 ar   
    55   29   53 1    
    56   30   31 ar   
    57   30   54 1    
    58   31   55 1    
@<TRIPOS>SUBSTRUCTURE
     1 LIG         1 GROUP             0       ****    0 ROOT    
