@<TRIPOS>MOLECULE
:3u5j_ligand
35   38    1
SMALL
USER_CHARGES


@<TRIPOS>ATOM
      1 CAS        29.1210   15.7270   -1.1820 C.ar      1 LIG         0.0044 
      2 CAJ        27.8430   15.1590   -1.0530 C.ar      1 LIG        -0.1150 
      3 CAP        27.2860   15.0830    0.2170 C.ar      1 LIG         0.1800 
      4 CLAB       25.7010   14.3890    0.4320 Cl        1 LIG        -0.1800 
      5 CAH        27.9150   15.5780    1.3660 C.ar      1 LIG        -0.1150 
      6 CAI        29.1920   16.1500    1.2240 C.ar      1 LIG        -0.1150 
      7 CAU        29.7630   16.2300   -0.0400 C.ar      1 LIG         0.1225 
      8 NAV        31.0230   16.8100   -0.0460 N.pl3     1 LIG        -0.2159 
      9 CAR        31.5330   17.8720    0.6330 C.ar      1 LIG         0.2950 
     10 CAA        30.8060   18.8220    1.6030 C.3       1 LIG        -0.0650 
     11 NAM        32.8150   18.0370    0.2990 N.2       1 LIG        -0.3633 
     12 NAN        33.1510   17.1120   -0.5260 N.2       1 LIG        -0.3633 
     13 CAT        32.0580   16.3490   -0.7580 C.ar      1 LIG         0.2950 
     14 CAK        31.9560   15.2150   -1.7300 C.3       1 LIG         0.2152 
     15 NAL        30.9790   15.6910   -2.7460 N.2       1 LIG        -0.6099 
     16 CAO        29.6510   15.7770   -2.5090 C.2       1 LIG         0.3809 
     17 CAQ        28.8590   16.2640   -3.6140 C.ar      1 LIG         0.0044 
     18 CAF        27.6920   16.9910   -3.3980 C.ar      1 LIG        -0.1150 
     19 CAD        26.9580   17.5330   -4.4550 C.ar      1 LIG        -0.1150 
     20 CAC        27.3430   17.3280   -5.7770 C.ar      1 LIG        -0.1150 
     21 CAE        28.4910   16.5930   -5.9960 C.ar      1 LIG        -0.1150 
     22 CAG        29.2270   16.0660   -4.9390 C.ar      1 LIG        -0.1150 
     23 HAJ        27.3023   14.7527   -1.8966 H         1 LIG         0.1150 
     24 HAH        27.4420   15.5146    2.3352 H         1 LIG         0.1150 
     25 HAI        29.6806   16.5190    2.1068 H         1 LIG         0.1150 
     26 HAA1       31.3105   19.7870    1.6215 H         1 LIG         0.0600 
     27 HAA2       29.7759   18.9794    1.2846 H         1 LIG         0.0600 
     28 HAA3       30.8129   18.4167    2.6141 H         1 LIG         0.0600 
     29 HAK1       31.6000   14.3216   -1.2197 H         1 LIG         0.0600 
     30 HAK2       32.9261   15.0062   -2.1823 H         1 LIG         0.0600 
     31 HAF        27.3372   17.2207   -2.4071 H         1 LIG         0.1150 
     32 HAD        26.0776   18.1215   -4.2437 H         1 LIG         0.1150 
     33 HAC        26.7772   17.7436   -6.5982 H         1 LIG         0.1150 
     34 HAE        28.8227   16.4217   -7.0096 H         1 LIG         0.1150 
     35 HAG        30.1174   15.5023   -5.1785 H         1 LIG         0.1150 
@<TRIPOS>BOND
     1    1    2 ar   
     2    1    7 ar   
     3    1   16 1    
     4    2    3 ar   
     5    2   23 1    
     6    3    4 1    
     7    3    5 ar   
     8    5    6 ar   
     9    5   24 1    
    10    6    7 ar   
    11    6   25 1    
    12    7    8 1    
    13    8    9 ar   
    14    8   13 ar   
    15    9   10 1    
    16    9   11 ar   
    17   10   26 1    
    18   10   27 1    
    19   10   28 1    
    20   11   12 ar   
    21   12   13 ar   
    22   13   14 1    
    23   14   15 1    
    24   14   29 1    
    25   14   30 1    
    26   15   16 2    
    27   16   17 1    
    28   17   18 ar   
    29   17   22 ar   
    30   18   19 ar   
    31   18   31 1    
    32   19   20 ar   
    33   19   32 1    
    34   20   21 ar   
    35   20   33 1    
    36   21   22 ar   
    37   21   34 1    
    38   22   35 1    
@<TRIPOS>SUBSTRUCTURE
     1 LIG         1 GROUP             0       ****    0 ROOT    
