@<TRIPOS>MOLECULE
:1oyt_ligand
55   59    1
SMALL
USER_CHARGES


@<TRIPOS>ATOM
      1 O21        16.6950  -12.8160   22.7290 O.2       1 LIG        -0.5080 
      2 C20        17.4090  -12.5450   21.7800 C.2       1 LIG         0.6305 
      3 N19        18.5310  -13.3290   21.4300 N.am      1 LIG        -0.3150 
      4 C23        18.8670  -14.5430   22.1730 C.3       1 LIG         0.0650 
      5 C24        19.7880  -14.2110   23.3150 C.ar      1 LIG        -0.1150 
      6 C32        19.2510  -14.0800   24.6100 C.ar      1 LIG        -0.1150 
      7 C31        20.1060  -13.8060   25.6770 C.ar      1 LIG        -0.1150 
      8 C30        21.4750  -13.6670   25.4130 C.ar      1 LIG         0.2200 
      9 F29        22.2470  -13.4240   26.4870 F         1 LIG        -0.2200 
     10 C26        22.0580  -13.7740   24.1420 C.ar      1 LIG        -0.1150 
     11 C25        21.1740  -14.0520   23.0690 C.ar      1 LIG        -0.1150 
     12 C17        19.0640  -12.9060   20.1780 C.2       1 LIG         0.6305 
     13 O18        20.0420  -13.3920   19.6320 O.2       1 LIG        -0.5080 
     14 C16        18.2450  -11.8120   19.6630 C.3       1 LIG        -0.0600 
     15 C15        17.2170  -12.1980   18.6000 C.3       1 LIG         0.2100 
     16 N11        15.7990  -12.4400   19.1400 N.4       1 LIG        -0.1000 
     17 C12        14.9690  -11.9970   17.9830 C.3       1 LIG         0.1500 
     18 C13        15.8910  -12.1930   16.7360 C.3       1 LIG        -0.1200 
     19 C14        17.2510  -11.6720   17.2230 C.3       1 LIG        -0.1200 
     20 C10        15.8630  -11.3370   20.1940 C.3       1 LIG         0.3250 
     21 C7         14.6700  -11.2040   21.0920 C.ar      1 LIG         0.0170 
     22 C8         13.9280  -12.3500   21.3610 C.ar      1 LIG        -0.1060 
     23 C9         12.8510  -12.2910   22.2350 C.ar      1 LIG        -0.0900 
     24 C4         12.5240  -11.0440   22.8370 C.ar      1 LIG        -0.1190 
     25 C5         13.2700   -9.8900   22.5730 C.ar      1 LIG        -0.0900 
     26 C6         14.3560   -9.9610   21.6950 C.ar      1 LIG        -0.1060 
     27 C3         11.3830  -11.0010   23.7370 C.2       1 LIG         0.8270 
     28 N1         10.5520  -12.0640   23.8870 N.pl3     1 LIG        -0.8850 
     29 N2         11.0790   -9.9100   24.4850 N.pl3     1 LIG        -0.8850 
     30 C22        17.2470  -11.4430   20.8070 C.3       1 LIG        -0.0600 
     31 H231       19.3615  -15.2566   21.5118 H         1 LIG         0.0600 
     32 H232       17.9709  -15.0489   22.5373 H         1 LIG         0.0600 
     33 H32        18.1914  -14.2013   24.7846 H         1 LIG         0.1150 
     34 H31        19.7256  -13.7102   26.6832 H         1 LIG         0.1150 
     35 H26        23.1208  -13.6540   23.9917 H         1 LIG         0.1150 
     36 H25        21.5589  -14.1481   22.0648 H         1 LIG         0.1150 
     37 H16        18.8740  -10.9790   19.3690 H         1 LIG         0.0600 
     38 H15        17.4593  -13.2426   18.3842 H         1 LIG         0.0600 
     39 HN11       15.6478  -13.3790   19.4804 H         1 LIG         0.2900 
     40 H121       14.6342  -10.9604   18.0468 H         1 LIG         0.0600 
     41 H122       14.0825  -12.6261   17.9196 H         1 LIG         0.0600 
     42 H131       15.5258  -11.6525   15.8622 H         1 LIG         0.0600 
     43 H132       15.9538  -13.2499   16.4696 H         1 LIG         0.0600 
     44 H141       18.0934  -12.0358   16.6339 H         1 LIG         0.0600 
     45 H142       17.2650  -10.5838   17.2102 H         1 LIG         0.0600 
     46 H10        15.8851  -10.3794   19.6715 H         1 LIG         0.0600 
     47 H8         14.1806  -13.3054   20.9267 H         1 LIG         0.1410 
     48 H9         12.2974  -13.1966   22.4333 H         1 LIG         0.1290 
     49 H5         13.0331   -8.9427   23.0346 H         1 LIG         0.1290 
     50 H6         14.9562   -9.0839   21.5057 H         1 LIG         0.1410 
     51 H11         9.7310  -11.9826   24.4857 H         1 LIG         0.4455 
     52 H12        10.7408  -12.9470   23.4314 H         1 LIG         0.4455 
     53 H21        10.2047   -9.8831   25.0061 H         1 LIG         0.4455 
     54 H22        11.6739   -9.0959   24.4664 H         1 LIG         0.4455 
     55 H22        17.5532  -10.5220   21.2754 H         1 LIG         0.0600 
@<TRIPOS>BOND
     1    1    2 2    
     2    2    3 am   BACKBONE|DICT|INTERRES
     3    2   30 1    
     4    3    4 1    
     5    3   12 am   BACKBONE|DICT|INTERRES
     6    4    5 1    
     7    4   31 1    
     8    4   32 1    
     9    5    6 ar   
    10    5   11 ar   
    11    6    7 ar   
    12    6   33 1    
    13    7    8 ar   
    14    7   34 1    
    15    8    9 1    
    16    8   10 ar   
    17   10   11 ar   
    18   10   35 1    
    19   11   36 1    
    20   12   13 2    
    21   12   14 1    
    22   14   15 1    
    23   14   30 1    
    24   14   37 1    
    25   15   16 1    
    26   15   19 1    
    27   15   38 1    
    28   16   17 1    
    29   16   20 1    
    30   16   39 1    
    31   17   18 1    
    32   17   40 1    
    33   17   41 1    
    34   18   19 1    
    35   18   42 1    
    36   18   43 1    
    37   19   44 1    
    38   19   45 1    
    39   20   21 1    
    40   20   30 1    
    41   20   46 1    
    42   21   22 ar   
    43   21   26 ar   
    44   22   23 ar   
    45   22   47 1    
    46   23   24 ar   
    47   23   48 1    
    48   24   25 ar   
    49   24   27 1    
    50   25   26 ar   
    51   25   49 1    
    52   26   50 1    
    53   27   28 2    
    54   27   29 1    
    55   28   51 1    
    56   28   52 1    
    57   29   53 1    
    58   29   54 1    
    59   30   55 1    
@<TRIPOS>SUBSTRUCTURE
     1 LIG         1 GROUP             0       ****    0 ROOT    
