@<TRIPOS>MOLECULE
:2pog_ligand
39   42    1
SMALL
USER_CHARGES


@<TRIPOS>ATOM
      1 C1         14.5050   51.0830   58.9950 C.ar      1 LIG        -0.1150 
      2 C2         15.8900   50.8660   58.6040 C.ar      1 LIG         0.1500 
      3 O3         16.9020   51.3380   59.2370 O.3       1 LIG        -0.5850 
      4 C4         16.0760   50.0670   57.4220 C.ar      1 LIG        -0.1150 
      5 C5         15.0010   49.5080   56.6680 C.ar      1 LIG        -0.1150 
      6 C6         13.6700   49.7320   57.0740 C.ar      1 LIG        -0.1150 
      7 C7         13.4230   50.5100   58.2250 C.ar      1 LIG         0.0850 
      8 O8         12.0970   50.6770   58.5540 O.3       1 LIG        -0.2850 
      9 C9         11.7640   51.9600   59.1550 C.3       1 LIG         0.2118 
     10 C11        12.6450   52.2650   60.4200 C.3       1 LIG        -0.0600 
     11 C13        14.1540   51.9210   60.2370 C.3       1 LIG         0.0550 
     12 C15        14.5790   51.2410   61.5600 C.3       1 LIG        -0.1200 
     13 C16        13.4980   51.5960   62.5590 C.3       1 LIG        -0.1200 
     14 C17        12.2370   51.5520   61.7220 C.3       1 LIG        -0.1200 
     15 C18        10.2580   52.0450   59.4310 C.ar      1 LIG        -0.0418 
     16 C19         9.4580   50.8660   59.3060 C.ar      1 LIG        -0.1150 
     17 C20         8.0670   50.9000   59.5580 C.ar      1 LIG        -0.1150 
     18 C21         7.3750   52.0940   59.9470 C.ar      1 LIG         0.1500 
     19 O22         6.1260   52.1100   60.1730 O.3       1 LIG        -0.5850 
     20 C23         8.2010   53.2630   60.0640 C.ar      1 LIG        -0.1150 
     21 C24         9.6070   53.2550   59.8170 C.ar      1 LIG        -0.1150 
     22 HO3        17.7417   51.0111   58.9365 H         1 LIG         0.4350 
     23 H4         17.0835   49.8839   57.0784 H         1 LIG         0.1150 
     24 H5         15.2035   48.9269   55.7817 H         1 LIG         0.1150 
     25 H6         12.8500   49.3155   56.5074 H         1 LIG         0.1150 
     26 H9         11.9781   52.7107   58.3944 H         1 LIG         0.0300 
     27 H11        12.5686   53.3338   60.6281 H         1 LIG         0.0600 
     28 H13        14.6944   52.8641   60.1397 H         1 LIG         0.0600 
     29 H151       15.5736   51.5210   61.8746 H         1 LIG         0.0600 
     30 H152       14.5807   50.1571   61.4316 H         1 LIG         0.0600 
     31 H161       13.6591   52.6010   62.9522 H         1 LIG         0.0600 
     32 H162       13.4683   50.9056   63.4018 H         1 LIG         0.0600 
     33 H171       11.9498   50.5313   61.4879 H         1 LIG         0.0600 
     34 H172       11.3912   52.0254   62.2181 H         1 LIG         0.0600 
     35 H19         9.8987   49.9215   59.0245 H         1 LIG         0.1150 
     36 H20         7.5035   49.9839   59.4551 H         1 LIG         0.1150 
     37 HO22        5.7988   52.9675   60.3976 H         1 LIG         0.4350 
     38 H23         7.7429   54.1971   60.3552 H         1 LIG         0.1150 
     39 H24        10.1767   54.1652   59.9173 H         1 LIG         0.1150 
@<TRIPOS>BOND
     1    1    2 ar   
     2    1    7 ar   
     3    1   11 1    
     4    2    3 1    
     5    2    4 ar   
     6    3   22 1    
     7    4    5 ar   
     8    4   23 1    
     9    5    6 ar   
    10    5   24 1    
    11    6    7 ar   
    12    6   25 1    
    13    7    8 1    
    14    8    9 1    
    15    9   10 1    
    16    9   15 1    
    17    9   26 1    
    18   10   11 1    
    19   10   14 1    
    20   10   27 1    
    21   11   12 1    
    22   11   28 1    
    23   12   13 1    
    24   12   29 1    
    25   12   30 1    
    26   13   14 1    
    27   13   31 1    
    28   13   32 1    
    29   14   33 1    
    30   14   34 1    
    31   15   16 ar   
    32   15   21 ar   
    33   16   17 ar   
    34   16   35 1    
    35   17   18 ar   
    36   17   36 1    
    37   18   19 1    
    38   18   20 ar   
    39   19   37 1    
    40   20   21 ar   
    41   20   38 1    
    42   21   39 1    
@<TRIPOS>SUBSTRUCTURE
     1 LIG         1 GROUP             0       ****    0 ROOT    
