@<TRIPOS>MOLECULE
:3f3c_ligand
23   23    1
SMALL
USER_CHARGES


@<TRIPOS>ATOM
      1 N          25.9520   32.2700   19.1620 N.4       1 LIG         0.2475 
      2 CA         27.2540   31.6260   19.1260 C.3       1 LIG         0.0625 
      3 C          27.2000   30.3180   18.3880 C.2       1 LIG         0.4450 
      4 O          28.2740   29.6910   18.1950 O.co2     1 LIG        -0.7225 
      5 OXT        26.0890   29.9050   18.0060 O.co2     1 LIG        -0.7225 
      6 CB         27.7240   31.3570   20.5520 C.3       1 LIG        -0.0050 
      7 CG         28.0240   32.6860   21.1950 C.ar      1 LIG        -0.1150 
      8 CD1        28.6550   33.6630   20.4380 C.ar      1 LIG        -0.1150 
      9 CD2        27.6660   32.9360   22.5200 C.ar      1 LIG        -0.1150 
     10 CE1        28.9370   34.8970   20.9980 C.ar      1 LIG        -0.1150 
     11 CE2        27.9470   34.1790   23.0870 C.ar      1 LIG        -0.1150 
     12 CZ         28.5800   35.1500   22.3190 C.ar      1 LIG         0.2200 
     13 F          28.8640   36.3490   22.8450 F         1 LIG        -0.2200 
     14 H1         26.0267   33.1865   19.5830 H         1 LIG         0.2100 
     15 H2         25.6084   32.3556   18.2141 H         1 LIG         0.2100 
     16 H3         25.3115   31.6972   19.6954 H         1 LIG         0.2100 
     17 HA         27.9104   32.2106   18.4916 H         1 LIG         0.0600 
     18 HB1        28.6389   30.7650   20.5825 H         1 LIG         0.0600 
     19 HB2        26.9695   30.8148   21.1250 H         1 LIG         0.0600 
     20 HD1        28.9809   33.5290   19.4293 H         1 LIG         0.1150 
     21 HD2        27.1796   32.1719   23.1066 H         1 LIG         0.1150 
     22 HE1        29.4466   35.6446   20.4134 H         1 LIG         0.1150 
     23 HE2        27.7077   34.3979   24.1087 H         1 LIG         0.1150 
@<TRIPOS>BOND
     1    1    2 1    
     2    1   14 1    
     3    1   15 1    
     4    1   16 1    
     5    2    3 1    
     6    2    6 1    
     7    2   17 1    
     8    3    4 2    
     9    3    5 1    
    10    6    7 1    
    11    6   18 1    
    12    6   19 1    
    13    7    8 ar   
    14    7    9 ar   
    15    8   10 ar   
    16    8   20 1    
    17    9   11 ar   
    18    9   21 1    
    19   10   12 ar   
    20   10   22 1    
    21   11   12 ar   
    22   11   23 1    
    23   12   13 1    
@<TRIPOS>SUBSTRUCTURE
     1 LIG         1 GROUP             0       ****    0 ROOT    
