@<TRIPOS>MOLECULE
:2qnq_ligand
71   75    1
SMALL
USER_CHARGES


@<TRIPOS>ATOM
      1 C2        -14.7370   23.2240   -1.7640 C.ar      1 LIG        -0.1150 
      2 C6        -13.6490   23.6870   -2.5430 C.ar      1 LIG        -0.1150 
      3 C5        -13.7490   23.6880   -3.9560 C.ar      1 LIG        -0.1150 
      4 C20       -14.9340   23.2330   -4.6060 C.ar      1 LIG         0.1800 
      5 C27       -16.0490   22.7610   -3.8340 C.ar      1 LIG         0.1567 
      6 S9        -17.6440   22.1560   -4.4740 S.o2      1 LIG         0.8327 
      7 N32       -17.3770   20.4350   -4.1040 N.pl3     1 LIG        -0.5376 
      8 C24       -16.4990   19.6960   -5.0680 C.3       1 LIG         0.1688 
      9 C23       -17.1200   18.3860   -5.6960 C.3       1 LIG         0.1688 
     10 N28       -17.0730   18.3830   -7.1910 N.pl3     1 LIG        -0.5376 
     11 S8        -18.5450   18.7020   -8.0640 S.o2      1 LIG         0.8327 
     12 O10       -19.0970   19.9320   -7.5320 O.2       1 LIG        -0.4680 
     13 O41       -18.2240   18.6930   -9.4900 O.2       1 LIG        -0.4680 
     14 C26       -19.7460   17.3730   -7.8620 C.ar      1 LIG         0.1567 
     15 C19       -20.9680   17.6690   -7.1920 C.ar      1 LIG        -0.1150 
     16 C3        -21.9690   16.6720   -7.0090 C.ar      1 LIG        -0.1150 
     17 C4        -21.7560   15.3520   -7.5020 C.ar      1 LIG        -0.1150 
     18 C1        -20.5420   15.0360   -8.1760 C.ar      1 LIG        -0.1150 
     19 C17       -19.5360   16.0350   -8.3600 C.ar      1 LIG         0.1800 
     20 CL1       -18.0790   15.5790   -9.2030 Cl        1 LIG        -0.1800 
     21 C7        -15.8450   18.0910   -7.9740 C.3       1 LIG         0.2105 
     22 C12       -14.9580   19.3250   -8.2840 C.ar      1 LIG        -0.1150 
     23 C13       -15.4980   20.4470   -8.9850 C.ar      1 LIG        -0.1150 
     24 C29       -14.6860   21.5770   -9.2820 C.ar      1 LIG        -0.1150 
     25 C31       -13.3200   21.6000   -8.8780 C.ar      1 LIG        -0.1150 
     26 C30       -12.7710   20.4890   -8.1770 C.ar      1 LIG        -0.1150 
     27 C14       -13.5860   19.3620   -7.8840 C.ar      1 LIG        -0.1150 
     28 C21       -16.3310   17.2600   -4.9760 C.3       1 LIG         0.1700 
     29 N22       -14.9820   17.8160   -4.7060 N.4       1 LIG        -0.2000 
     30 C25       -15.1360   19.2670   -4.4520 C.3       1 LIG         0.1700 
     31 C33       -18.0090   19.8160   -2.9120 C.3       1 LIG         0.2105 
     32 C34       -19.3980   19.1890   -3.0370 C.ar      1 LIG        -0.1150 
     33 C35       -20.3680   19.7000   -3.9380 C.ar      1 LIG        -0.1150 
     34 C36       -21.6560   19.0940   -4.0180 C.ar      1 LIG        -0.1150 
     35 C37       -21.9810   17.9720   -3.1970 C.ar      1 LIG        -0.1150 
     36 C39       -21.0110   17.4580   -2.2940 C.ar      1 LIG        -0.1150 
     37 C38       -19.7270   18.0660   -2.2160 C.ar      1 LIG        -0.1150 
     38 O11       -17.7330   22.2250   -5.9260 O.2       1 LIG        -0.4680 
     39 O40       -18.5820   22.7870   -3.5540 O.2       1 LIG        -0.4680 
     40 C18       -15.9210   22.7670   -2.4050 C.ar      1 LIG        -0.1150 
     41 CL3       -14.9550   23.2720   -6.3270 Cl        1 LIG        -0.1800 
     42 H2        -14.6720   23.2257   -0.6854 H         1 LIG         0.1150 
     43 H6        -12.7481   24.0386   -2.0614 H         1 LIG         0.1150 
     44 H5        -12.9175   24.0422   -4.5479 H         1 LIG         0.1150 
     45 H24       -16.2519   20.3633   -5.8916 H         1 LIG         0.0733 
     46 H23       -18.1687   18.2961   -5.4134 H         1 LIG         0.0733 
     47 H19       -21.1454   18.6638   -6.8154 H         1 LIG         0.1150 
     48 H3        -22.8878   16.9180   -6.4971 H         1 LIG         0.1150 
     49 H4        -22.5124   14.5919   -7.3683 H         1 LIG         0.1150 
     50 H1        -20.3878   14.0398   -8.5604 H         1 LIG         0.1150 
     51 H71       -16.1360   17.6493   -8.9169 H         1 LIG         0.0733 
     52 H72       -15.3210   17.2823   -7.5157 H         1 LIG         0.0733 
     53 H13       -16.5236   20.4492   -9.3020 H         1 LIG         0.1150 
     54 H29       -15.1043   22.4176   -9.8154 H         1 LIG         0.1150 
     55 H31       -12.7033   22.4574   -9.1042 H         1 LIG         0.1150 
     56 H30       -11.7351   20.4996   -7.8710 H         1 LIG         0.1150 
     57 H14       -13.1141   18.5527   -7.3682 H         1 LIG         0.1150 
     58 H211      -16.3027   16.3303   -5.5169 H         1 LIG         0.0600 
     59 H212      -16.7983   17.1025   -4.0078 H         1 LIG         0.0600 
     60 H221      -14.3949   17.6393   -5.5182 H         1 LIG         0.3100 
     61 H222      -14.5474   17.3683   -3.9053 H         1 LIG         0.3100 
     62 H251      -15.0650   19.5815   -3.4177 H         1 LIG         0.0600 
     63 H252      -14.3149   19.7776   -4.9562 H         1 LIG         0.0600 
     64 H331      -18.1686   20.6371   -2.2279 H         1 LIG         0.0733 
     65 H332      -17.3173   19.1160   -2.4478 H         1 LIG         0.0733 
     66 H35       -20.1391   20.5584   -4.5477 H         1 LIG         0.1150 
     67 H36       -22.4577   19.5023   -4.5680 H         1 LIG         0.1150 
     68 H37       -22.9667   17.5339   -3.2437 H         1 LIG         0.1150 
     69 H39       -21.2421   16.6085   -1.6699 H         1 LIG         0.1150 
     70 H38       -18.9940   17.6708   -1.5301 H         1 LIG         0.1150 
     71 H18       -16.7587   22.4596   -1.8077 H         1 LIG         0.1150 
@<TRIPOS>BOND
     1    1    2 ar   
     2    1   40 ar   
     3    1   42 1    
     4    2    3 ar   
     5    2   43 1    
     6    3    4 ar   
     7    3   44 1    
     8    4    5 ar   
     9    4   41 1    
    10    5    6 1    
    11    5   40 ar   
    12    6    7 1    
    13    6   38 2    
    14    6   39 2    
    15    7    8 1    
    16    7   31 1    
    17    8    9 1    
    18    8   30 1    
    19    8   45 1    
    20    9   10 1    
    21    9   28 1    
    22    9   46 1    
    23   10   11 1    
    24   10   21 1    
    25   11   12 2    
    26   11   13 2    
    27   11   14 1    
    28   14   15 ar   
    29   14   19 ar   
    30   15   16 ar   
    31   15   47 1    
    32   16   17 ar   
    33   16   48 1    
    34   17   18 ar   
    35   17   49 1    
    36   18   19 ar   
    37   18   50 1    
    38   19   20 1    
    39   21   22 1    
    40   21   51 1    
    41   21   52 1    
    42   22   23 ar   
    43   22   27 ar   
    44   23   24 ar   
    45   23   53 1    
    46   24   25 ar   
    47   24   54 1    
    48   25   26 ar   
    49   25   55 1    
    50   26   27 ar   
    51   26   56 1    
    52   27   57 1    
    53   28   29 1    
    54   28   58 1    
    55   28   59 1    
    56   29   30 1    
    57   29   60 1    
    58   29   61 1    
    59   30   62 1    
    60   30   63 1    
    61   31   32 1    
    62   31   64 1    
    63   31   65 1    
    64   32   33 ar   
    65   32   37 ar   
    66   33   34 ar   
    67   33   66 1    
    68   34   35 ar   
    69   34   67 1    
    70   35   36 ar   
    71   35   68 1    
    72   36   37 ar   
    73   36   69 1    
    74   37   70 1    
    75   40   71 1    
@<TRIPOS>SUBSTRUCTURE
     1 LIG         1 GROUP             0       ****    0 ROOT    
