@<TRIPOS>MOLECULE
:3ebp_ligand
49   52    1
SMALL
USER_CHARGES


@<TRIPOS>ATOM
      1 C1         43.6640   39.9960   27.9080 C.3       1 LIG         0.0900 
      2 N1         42.6920   39.6050   28.9430 N.4       1 LIG        -0.1000 
      3 C16        41.3320   39.6430   28.3560 C.3       1 LIG         0.1500 
      4 C15        40.2750   39.2770   29.4140 C.3       1 LIG        -0.1200 
      5 C14        40.6090   37.9170   30.0470 C.3       1 LIG         0.0550 
      6 C13        42.0680   37.8680   30.5630 C.3       1 LIG         0.2050 
      7 C12        43.0340   38.2510   29.4370 C.3       1 LIG         0.1500 
      8 C8         39.5420   37.4920   31.1020 C.ar      1 LIG        -0.1150 
      9 C9         38.7280   36.3900   30.7900 C.ar      1 LIG         0.0850 
     10 O1         38.9310   35.7490   29.5910 O.3       1 LIG        -0.1700 
     11 C2         38.1810   34.6440   29.2800 C.2       1 LIG         0.0850 
     12 C3         37.1960   34.1910   30.1560 C.2       1 LIG        -0.1150 
     13 C4         36.9570   34.8520   31.3570 C.2       1 LIG         0.5850 
     14 O4         36.0800   34.4380   32.1180 O.2       1 LIG        -0.4700 
     15 C10        37.7360   35.9640   31.6850 C.ar      1 LIG        -0.1150 
     16 C5         37.5740   36.6230   32.9090 C.ar      1 LIG         0.1500 
     17 O5         36.6350   36.2280   33.8150 O.3       1 LIG        -0.5850 
     18 C6         38.3740   37.7130   33.2180 C.ar      1 LIG        -0.1150 
     19 C7         39.3480   38.1540   32.3240 C.ar      1 LIG         0.1500 
     20 O7         40.0930   39.2270   32.6980 O.3       1 LIG        -0.5850 
     21 C21        38.4210   33.9460   28.0870 C.ar      1 LIG         0.0000 
     22 C22        38.8300   34.5770   26.8980 C.ar      1 LIG         0.1800 
     23 CL1        39.0450   36.2890   26.7970 Cl        1 LIG        -0.1800 
     24 C23        39.0690   33.8290   25.7450 C.ar      1 LIG        -0.1150 
     25 C24        38.9080   32.4450   25.7710 C.ar      1 LIG        -0.1150 
     26 C25        38.5120   31.8100   26.9480 C.ar      1 LIG        -0.1150 
     27 C26        38.2740   32.5510   28.0980 C.ar      1 LIG        -0.1150 
     28 O3         42.2540   38.7900   31.6350 O.3       1 LIG        -0.6830 
     29 H11        44.6762   40.0048   28.3142 H         1 LIG         0.0600 
     30 H12        43.6460   39.3128   27.0571 H         1 LIG         0.0600 
     31 H13        43.4536   41.0013   27.5409 H         1 LIG         0.0600 
     32 HN1        42.7403   40.2515   29.7185 H         1 LIG         0.2900 
     33 H161       41.2658   38.9548   27.5109 H         1 LIG         0.0600 
     34 H162       41.1222   40.6410   27.9685 H         1 LIG         0.0600 
     35 H151       39.2874   39.2414   28.9519 H         1 LIG         0.0600 
     36 H152       40.2335   40.0584   30.1729 H         1 LIG         0.0600 
     37 H14        40.5988   37.2110   29.2196 H         1 LIG         0.0600 
     38 H13        42.3005   36.8680   30.9264 H         1 LIG         0.0600 
     39 H121       44.0591   38.2364   29.8110 H         1 LIG         0.0600 
     40 H122       42.9813   37.5221   28.6259 H         1 LIG         0.0600 
     41 H3         36.5708   33.3385   29.9312 H         1 LIG         0.1150 
     42 HO5        36.1717   35.4580   33.5119 H         1 LIG         0.4350 
     43 H6         38.2401   38.2180   34.1636 H         1 LIG         0.1150 
     44 HO7        39.8101   39.6018   33.5199 H         1 LIG         0.4350 
     45 H23        39.3821   34.3179   24.8343 H         1 LIG         0.1150 
     46 H24        39.1227   31.8859   24.8750 H         1 LIG         0.1150 
     47 H25        38.4041   30.7357   26.9764 H         1 LIG         0.1150 
     48 H26        37.9934   32.0187   28.9919 H         1 LIG         0.1150 
     49 HO3        41.4399   38.8480   32.1282 H         1 LIG         0.4180 
@<TRIPOS>BOND
     1    1    2 1    
     2    1   29 1    
     3    1   30 1    
     4    1   31 1    
     5    2    3 1    
     6    2    7 1    
     7    2   32 1    
     8    3    4 1    
     9    3   33 1    
    10    3   34 1    
    11    4    5 1    
    12    4   35 1    
    13    4   36 1    
    14    5    6 1    
    15    5    8 1    
    16    5   37 1    
    17    6    7 1    
    18    6   28 1    
    19    6   38 1    
    20    7   39 1    
    21    7   40 1    
    22    8    9 ar   
    23    8   19 ar   
    24    9   10 1    
    25    9   15 ar   
    26   10   11 1    
    27   11   12 2    
    28   11   21 1    
    29   12   13 1    
    30   12   41 1    
    31   13   14 2    
    32   13   15 1    
    33   15   16 ar   
    34   16   17 1    
    35   16   18 ar   
    36   17   42 1    
    37   18   19 ar   
    38   18   43 1    
    39   19   20 1    
    40   20   44 1    
    41   21   22 ar   
    42   21   27 ar   
    43   22   23 1    
    44   22   24 ar   
    45   24   25 ar   
    46   24   45 1    
    47   25   26 ar   
    48   25   46 1    
    49   26   27 ar   
    50   26   47 1    
    51   27   48 1    
    52   28   49 1    
@<TRIPOS>SUBSTRUCTURE
     1 LIG         1 GROUP             0       ****    0 ROOT    
