@<TRIPOS>MOLECULE
:3zt2_ligand
34   37    1
SMALL
USER_CHARGES


@<TRIPOS>ATOM
      1 C1        -31.0220   28.6060    0.4650 C.ar      1 LIG        -0.1150 
      2 C2        -31.3000   27.4720   -0.2810 C.ar      1 LIG        -0.1150 
      3 C3        -31.8480   29.7120    0.3510 C.ar      1 LIG        -0.1150 
      4 C4        -33.1840   32.2220    1.8450 C.ar      1 LIG        -0.1150 
      5 C5        -32.4000   27.4850   -1.0960 C.ar      1 LIG        -0.1150 
      6 C6        -32.4520   32.8150    2.8790 C.ar      1 LIG        -0.1150 
      7 C7        -32.9340   29.7270   -0.4920 C.ar      1 LIG         0.0000 
      8 C8        -33.3240   32.7580    0.5900 C.ar      1 LIG         0.0000 
      9 C9        -32.7430   34.0160    0.3250 C.ar      1 LIG        -0.1150 
     10 C10       -33.2130   28.5940   -1.2240 C.ar      1 LIG        -0.1150 
     11 C11       -31.8660   34.0070    2.5600 C.ar      1 LIG         0.0850 
     12 C12       -32.0150   34.5880    1.3400 C.ar      1 LIG         0.0850 
     13 C13       -33.9430   30.7310   -0.7880 C.2       1 LIG         0.0000 
     14 C14       -34.9150   30.1040   -1.7170 C.2       1 LIG         0.4700 
     15 C15       -34.1500   32.0360   -0.4180 C.2       1 LIG        -0.1150 
     16 C16       -32.8460   34.6660   -1.0390 C.2       1 LIG         0.7150 
     17 C17       -34.4110   28.7400   -2.0820 C.3       1 LIG        -0.0050 
     18 C18       -30.6430   35.7000    2.4880 C.3       1 LIG         0.2000 
     19 O19       -31.8180   35.2260   -1.4970 O.co2     1 LIG        -0.8000 
     20 O20       -35.9610   30.6070   -2.1200 O.2       1 LIG        -0.4700 
     21 O21       -33.9450   34.5890   -1.7000 O.co2     1 LIG        -0.8000 
     22 O22       -31.0870   34.7500    3.3480 O.3       1 LIG        -0.2850 
     23 O23       -31.3650   35.7920    1.2490 O.3       1 LIG        -0.2850 
     24 H1        -30.1723   28.6291    1.1302 H         1 LIG         0.1150 
     25 H2        -30.6646   26.6015   -0.2160 H         1 LIG         0.1150 
     26 H3        -31.5776   30.5828    0.9214 H         1 LIG         0.1150 
     27 H4        -33.6623   31.2771    2.0585 H         1 LIG         0.1150 
     28 H5        -32.6287   26.6058   -1.6787 H         1 LIG         0.1150 
     29 H6        -32.3419   32.3493    3.8425 H         1 LIG         0.1150 
     30 H15       -35.0193   32.5647   -0.7823 H         1 LIG         0.1150 
     31 H171      -35.1530   27.9747   -1.8541 H         1 LIG         0.0600 
     32 H172      -34.1453   28.6892   -3.1379 H         1 LIG         0.0600 
     33 H181      -29.5985   35.4862    2.2553 H         1 LIG         0.1000 
     34 H182      -30.6892   36.6674    2.9885 H         1 LIG         0.1000 
@<TRIPOS>BOND
     1    1    2 ar   
     2    1    3 ar   
     3    1   24 1    
     4    2    5 ar   
     5    2   25 1    
     6    3    7 ar   
     7    3   26 1    
     8    4    6 ar   
     9    4    8 ar   
    10    4   27 1    
    11    5   10 ar   
    12    5   28 1    
    13    6   11 ar   
    14    6   29 1    
    15    7   10 ar   
    16    7   13 1    
    17    8    9 ar   
    18    8   15 1    
    19    9   12 ar   
    20    9   16 1    
    21   10   17 1    
    22   11   12 ar   
    23   11   22 1    
    24   12   23 1    
    25   13   14 1    
    26   13   15 2    
    27   14   17 1    
    28   14   20 2    
    29   15   30 1    
    30   16   19 2    
    31   16   21 1    
    32   17   31 1    
    33   17   32 1    
    34   18   22 1    
    35   18   23 1    
    36   18   33 1    
    37   18   34 1    
@<TRIPOS>SUBSTRUCTURE
     1 LIG         1 GROUP             0       ****    0 ROOT    
