@<TRIPOS>MOLECULE
:2cet_ligand
43   45    1
SMALL
USER_CHARGES


@<TRIPOS>ATOM
      1 O6         -2.7750    8.0450    8.4800 O.3       1 LIG        -0.6830 
      2 C6         -3.2670    9.3630    8.2000 C.3       1 LIG         0.1450 
      3 C5         -2.3130   10.4730    8.6290 C.3       1 LIG         0.0625 
      4 C4         -1.1030   10.6420    7.6940 C.3       1 LIG         0.2050 
      5 O4         -1.5160   10.8410    6.3370 O.3       1 LIG        -0.6830 
      6 C3         -0.2660   11.8380    8.1920 C.3       1 LIG         0.2050 
      7 O3          0.8140   12.2110    7.3370 O.3       1 LIG        -0.6830 
      8 C2          0.3640   11.5580    9.5490 C.3       1 LIG         0.3200 
      9 O2          0.7430   12.7850   10.1550 O.3       1 LIG        -0.6830 
     10 N1         -1.7290   10.2150    9.9710 N.pl3     1 LIG         0.0709 
     11 C8         -2.2130    9.4230   10.9420 C.ar      1 LIG        -0.1741 
     12 C7         -1.2870    9.4600   11.9730 C.ar      1 LIG         0.0080 
     13 N2         -0.2800   10.2540   11.5880 N.pl3     1 LIG        -0.2324 
     14 C1         -0.5520   10.7170   10.3680 C.ar      1 LIG         0.2228 
     15 C9         -1.3760    8.7660   13.3130 C.3       1 LIG         0.1096 
     16 C10        -0.0900    7.9790   13.5770 C.3       1 LIG        -0.0050 
     17 C14         0.2210    6.8550   12.5880 C.ar      1 LIG        -0.1150 
     18 C13         1.1890    7.0310   11.5850 C.ar      1 LIG        -0.1150 
     19 C12         1.5000    6.0000   10.6790 C.ar      1 LIG        -0.1150 
     20 C15        -0.4210    5.6130   12.6800 C.ar      1 LIG        -0.1150 
     21 C16        -0.1050    4.5860   11.7730 C.ar      1 LIG        -0.1150 
     22 C11         0.8590    4.7600   10.7710 C.ar      1 LIG        -0.1150 
     23 HO6        -2.2706    7.7465    7.7272 H         1 LIG         0.4180 
     24 H61        -4.1909    9.4756    8.7676 H         1 LIG         0.0600 
     25 H62        -3.5643    9.4527    7.1578 H         1 LIG         0.0600 
     26 H5         -2.8643   11.4116    8.6813 H         1 LIG         0.0600 
     27 H4         -0.4922    9.7370    7.6977 H         1 LIG         0.0600 
     28 HO4        -1.8801   10.0273    5.9932 H         1 LIG         0.4180 
     29 H3         -0.9269   12.7031    8.2726 H         1 LIG         0.0600 
     30 HO3         0.4606   12.5615    6.5286 H         1 LIG         0.4180 
     31 H2          1.2556   10.9490    9.4232 H         1 LIG         0.0600 
     32 HO2        -0.0256   13.3328   10.2791 H         1 LIG         0.4180 
     33 H8         -3.1575    8.9050   10.8723 H         1 LIG         0.2580 
     34 HN2         0.5607   10.4734   12.1293 H         1 LIG         0.3797 
     35 H91        -2.2435    8.1052   13.3262 H         1 LIG         0.0600 
     36 H92        -1.5272    9.5166   14.0897 H         1 LIG         0.0600 
     37 H101       -0.1612    7.5279   14.5671 H         1 LIG         0.0600 
     38 H102        0.7635    8.6478   13.6392 H         1 LIG         0.0600 
     39 H13         1.7005    7.9778   11.5017 H         1 LIG         0.1150 
     40 H12         2.2423    6.1680    9.9147 H         1 LIG         0.1150 
     41 H15        -1.1646    5.4420   13.4446 H         1 LIG         0.1150 
     42 H16        -0.6132    3.6366   11.8554 H         1 LIG         0.1150 
     43 H11         1.0954    3.9622   10.0825 H         1 LIG         0.1150 
@<TRIPOS>BOND
     1    1    2 1    
     2    1   23 1    
     3    2    3 1    
     4    2   24 1    
     5    2   25 1    
     6    3    4 1    
     7    3   10 1    
     8    3   26 1    
     9    4    5 1    
    10    4    6 1    
    11    4   27 1    
    12    5   28 1    
    13    6    7 1    
    14    6    8 1    
    15    6   29 1    
    16    7   30 1    
    17    8    9 1    
    18    8   14 1    
    19    8   31 1    
    20    9   32 1    
    21   10   11 ar   
    22   10   14 ar   
    23   11   12 ar   
    24   11   33 1    
    25   12   13 ar   
    26   12   15 1    
    27   13   14 ar   
    28   13   34 1    
    29   15   16 1    
    30   15   35 1    
    31   15   36 1    
    32   16   17 1    
    33   16   37 1    
    34   16   38 1    
    35   17   18 ar   
    36   17   20 ar   
    37   18   19 ar   
    38   18   39 1    
    39   19   22 ar   
    40   19   40 1    
    41   20   21 ar   
    42   20   41 1    
    43   21   22 ar   
    44   21   42 1    
    45   22   43 1    
@<TRIPOS>SUBSTRUCTURE
     1 LIG         1 GROUP             0       ****    0 ROOT    
