:2cet_ligand
                    3D
 Schrodinger Suite 2020-1.
 43 45  0  0  1  0            999 V2000
   -2.7750    8.0450    8.4800 O   0  0  0  0  0  0
   -3.2670    9.3630    8.2000 C   0  0  0  0  0  0
   -2.3130   10.4730    8.6290 C   0  0  2  0  0  0
   -1.1030   10.6420    7.6940 C   0  0  1  0  0  0
   -1.5160   10.8410    6.3370 O   0  0  0  0  0  0
   -0.2660   11.8380    8.1920 C   0  0  2  0  0  0
    0.8140   12.2110    7.3370 O   0  0  0  0  0  0
    0.3640   11.5580    9.5490 C   0  0  1  0  0  0
    0.7430   12.7850   10.1550 O   0  0  0  0  0  0
   -1.7290   10.2150    9.9710 N   0  0  0  0  0  0
   -2.2130    9.4230   10.9420 C   0  0  0  0  0  0
   -1.2870    9.4600   11.9730 C   0  0  0  0  0  0
   -0.2800   10.2540   11.5880 N   0  3  0  0  0  0
   -0.5520   10.7170   10.3680 C   0  0  0  0  0  0
   -1.3760    8.7660   13.3130 C   0  0  0  0  0  0
   -0.0900    7.9790   13.5770 C   0  0  0  0  0  0
    0.2210    6.8550   12.5880 C   0  0  0  0  0  0
    1.1890    7.0310   11.5850 C   0  0  0  0  0  0
    1.5000    6.0000   10.6790 C   0  0  0  0  0  0
   -0.4210    5.6130   12.6800 C   0  0  0  0  0  0
   -0.1050    4.5860   11.7730 C   0  0  0  0  0  0
    0.8590    4.7600   10.7710 C   0  0  0  0  0  0
   -2.2706    7.7465    7.7272 H   0  0  0  0  0  0
   -4.1909    9.4756    8.7676 H   0  0  0  0  0  0
   -3.5643    9.4527    7.1578 H   0  0  0  0  0  0
   -2.8643   11.4116    8.6813 H   0  0  0  0  0  0
   -0.4922    9.7370    7.6977 H   0  0  0  0  0  0
   -1.8801   10.0273    5.9932 H   0  0  0  0  0  0
   -0.9269   12.7031    8.2726 H   0  0  0  0  0  0
    0.4606   12.5615    6.5286 H   0  0  0  0  0  0
    1.2556   10.9490    9.4232 H   0  0  0  0  0  0
   -0.0256   13.3328   10.2791 H   0  0  0  0  0  0
   -3.1575    8.9050   10.8723 H   0  0  0  0  0  0
    0.5607   10.4734   12.1293 H   0  0  0  0  0  0
   -2.2435    8.1052   13.3262 H   0  0  0  0  0  0
   -1.5272    9.5166   14.0897 H   0  0  0  0  0  0
   -0.1612    7.5279   14.5671 H   0  0  0  0  0  0
    0.7635    8.6478   13.6392 H   0  0  0  0  0  0
    1.7005    7.9778   11.5017 H   0  0  0  0  0  0
    2.2423    6.1680    9.9147 H   0  0  0  0  0  0
   -1.1646    5.4420   13.4446 H   0  0  0  0  0  0
   -0.6132    3.6366   11.8554 H   0  0  0  0  0  0
    1.0954    3.9622   10.0825 H   0  0  0  0  0  0
  1  2  1  0  0  0
  1 23  1  0  0  0
  2  3  1  0  0  0
  2 24  1  0  0  0
  2 25  1  0  0  0
  3  4  1  0  0  0
  3 10  1  0  0  0
  3 26  1  0  0  0
  4  5  1  0  0  0
  4  6  1  0  0  0
  4 27  1  0  0  0
  5 28  1  0  0  0
  6  7  1  0  0  0
  6  8  1  0  0  0
  6 29  1  0  0  0
  7 30  1  0  0  0
  8  9  1  0  0  0
  8 14  1  0  0  0
  8 31  1  0  0  0
  9 32  1  0  0  0
 10 11  1  0  0  0
 10 14  1  0  0  0
 11 12  2  0  0  0
 11 33  1  0  0  0
 12 13  1  0  0  0
 12 15  1  0  0  0
 13 14  2  0  0  0
 13 34  1  0  0  0
 15 16  1  0  0  0
 15 35  1  0  0  0
 15 36  1  0  0  0
 16 17  1  0  0  0
 16 37  1  0  0  0
 16 38  1  0  0  0
 17 18  2  0  0  0
 17 20  1  0  0  0
 18 19  1  0  0  0
 18 39  1  0  0  0
 19 22  2  0  0  0
 19 40  1  0  0  0
 20 21  2  0  0  0
 20 41  1  0  0  0
 21 22  1  0  0  0
 21 42  1  0  0  0
 22 43  1  0  0  0
M  CHG  1  13   1
M  END
> <s_pdb_PDB_ID>


> <s_pdb_PDB_CLASSIFICATION>
2CET_PROTEIN

> <s_pdb_PDB_format_version>
3.0

> <b_ppw_prepared>
1

> <s_ppw_prepared_with_version>
2020-1

> <b_ppw_created_disulfur>
1

> <s_ppw_het_states>
eJxdkUEOgzAQA7+COKOKTQKYfqXiB6i3nhB/b5KlmpIcImu0imPv0Vv/7F75RM3r0I3b0GW5jEhDBmREJuSEnJELUkjchJuym10SN+Em3ISbcBNuwk24rdWt6CuzxzWSe2gjv0e/AwFCBbEFCZAqmFowA+YKlgboz1Z1Ym3A/0TNUsoM9Hqv1AE/lf3eCDTtJRt9e9VG6154uAH6kH+dLEV674HF+E4C6/EJK5sZH2OKeeY4h+792Xe/t+38Ak9xkiM=

> <r_ff_Potential_Energy-OPLS3e>
-114649.794319807

> <r_ff_RMS_Derivative-OPLS3e>
0.0432513847814658

> <b_ff_Minimization_Converged-OPLS3e>
1

> <r_i_Potential_Energy-OPLS_2005>
-14572.975321943

> <r_i_RMS_Derivative-OPLS_2005>
0.0475187735299656

> <r_i_Max_Derivative-OPLS_2005>
1.44354213559641

> <r_i_Stretch_Energy-OPLS_2005>
16.074849266535

> <r_i_Bend_Energy-OPLS_2005>
311.86277281606

> <r_i_LJ-14_Energy-OPLS_2005>
582.452914004338

> <r_i_El-14_Energy-OPLS_2005>
-518.196260260236

> <r_i_Van_der_Waals_Energy-OPLS_2005>
-1090.84860384714

> <r_i_Electrostatic_Energy-OPLS_2005>
-14147.6132002281

> <r_i_Dihedral_Energy-OPLS_2005>
273.292206305543

> <r_i_target_temperature>
298

> <s_user_Residue_ID>
_:1

$$$$
