@<TRIPOS>MOLECULE
:3bgz_ligand
38   41    1
SMALL
USER_CHARGES


@<TRIPOS>ATOM
      1 O2        -16.3530   34.6390    1.3060 O.co2     1 LIG        -0.8000 
      2 C16       -19.4690   37.5860   -1.0230 C.ar      1 LIG        -0.1190 
      3 C19       -22.3520   39.8790   -1.9770 C.ar      1 LIG        -0.1150 
      4 C3        -16.6360   35.5370    2.2610 C.2       1 LIG         0.7150 
      5 O4        -15.9970   35.5420    3.3100 O.co2     1 LIG        -0.8000 
      6 C5        -17.6710   36.5480    1.9860 C.ar      1 LIG        -0.2895 
      7 C6        -18.1840   36.6870    0.6720 C.ar      1 LIG         0.2860 
      8 N7        -17.9570   36.0140   -0.5040 N.pl3     1 LIG        -0.4786 
      9 C9        -18.7050   36.5490   -1.5230 C.ar      1 LIG         0.0857 
     10 C10       -18.6940   36.0300   -2.9150 C.ar      1 LIG         0.0000 
     11 C11       -19.8780   36.0240   -3.6840 C.ar      1 LIG        -0.1150 
     12 C12       -19.8540   35.5270   -4.9790 C.ar      1 LIG        -0.1150 
     13 C13       -18.6690   35.0290   -5.5120 C.ar      1 LIG        -0.1150 
     14 C14       -17.5040   35.0110   -4.7480 C.ar      1 LIG        -0.1150 
     15 C15       -17.5090   35.5010   -3.4590 C.ar      1 LIG        -0.1150 
     16 C17       -20.3690   38.5260   -1.7500 C.ar      1 LIG         0.0000 
     17 C18       -21.6090   38.9520   -1.2530 C.ar      1 LIG        -0.1150 
     18 C20       -21.8720   40.4050   -3.1770 C.ar      1 LIG        -0.1150 
     19 C21       -20.6330   40.0140   -3.6680 C.ar      1 LIG        -0.1150 
     20 C22       -19.8850   39.0960   -2.9540 C.ar      1 LIG        -0.1150 
     21 C23       -19.1250   37.6950    0.4060 C.ar      1 LIG         0.1233 
     22 C24       -19.5470   38.5420    1.4370 C.ar      1 LIG        -0.2243 
     23 C25       -19.0540   38.4060    2.7160 C.ar      1 LIG        -0.2222 
     24 C26       -18.1020   37.4260    2.9930 C.ar      1 LIG        -0.0888 
     25 H19       -23.3141   40.1976   -1.6055 H         1 LIG         0.1150 
     26 HN7       -17.3230   35.2336   -0.6129 H         1 LIG         0.3577 
     27 H11       -20.8085   36.3916   -3.2788 H         1 LIG         0.1150 
     28 H12       -20.7459   35.5494   -5.5800 H         1 LIG         0.1150 
     29 H13       -18.6496   34.6553   -6.5250 H         1 LIG         0.1150 
     30 H14       -16.5887   34.6232   -5.1704 H         1 LIG         0.1150 
     31 H15       -16.5970   35.4875   -2.8797 H         1 LIG         0.1150 
     32 H18       -21.9934   38.5566   -0.3245 H         1 LIG         0.1150 
     33 H20       -22.4675   41.1167   -3.7287 H         1 LIG         0.1150 
     34 H21       -20.2531   40.4285   -4.5904 H         1 LIG         0.1150 
     35 H22       -18.9121   38.8159   -3.3316 H         1 LIG         0.1150 
     36 H24       -20.2708   39.3167    1.2336 H         1 LIG         0.1699 
     37 H25       -19.3904   39.0727    3.4903 H         1 LIG         0.1489 
     38 H26       -17.6577   37.3881    3.9741 H         1 LIG         0.1359 
@<TRIPOS>BOND
     1    1    4 2    
     2    2    9 ar   
     3    2   16 1    
     4    2   21 ar   
     5    3   17 ar   
     6    3   18 ar   
     7    3   25 1    
     8    4    5 1    
     9    4    6 1    
    10    6    7 ar   
    11    6   24 ar   
    12    7    8 ar   
    13    7   21 ar   
    14    8    9 ar   
    15    8   26 1    
    16    9   10 1    
    17   10   11 ar   
    18   10   15 ar   
    19   11   12 ar   
    20   11   27 1    
    21   12   13 ar   
    22   12   28 1    
    23   13   14 ar   
    24   13   29 1    
    25   14   15 ar   
    26   14   30 1    
    27   15   31 1    
    28   16   17 ar   
    29   16   20 ar   
    30   17   32 1    
    31   18   19 ar   
    32   18   33 1    
    33   19   20 ar   
    34   19   34 1    
    35   20   35 1    
    36   21   22 ar   
    37   22   23 ar   
    38   22   36 1    
    39   23   24 ar   
    40   23   37 1    
    41   24   38 1    
@<TRIPOS>SUBSTRUCTURE
     1 LIG         1 GROUP             0       ****    0 ROOT    
