@<TRIPOS>MOLECULE
:3jvr_ligand
36   38    1
SMALL
USER_CHARGES


@<TRIPOS>ATOM
      1 C          33.5020   -0.4570   17.2450 C.ar      1 LIG        -0.3696 
      2 N          31.6960   -2.2630   17.2440 N.2       1 LIG        -0.6787 
      3 O          29.6340   -4.3190   18.3490 O.3       1 LIG        -0.3300 
      4 CL         25.4300   -3.1040   24.0080 Cl        1 LIG        -0.1800 
      5 C1         34.9240   -0.2480   17.3680 C.ar      1 LIG        -0.1490 
      6 N1         33.0950   -4.0190   17.5650 N.pl3     1 LIG        -0.6257 
      7 O1         30.8780   -5.0370   20.0350 O.2       1 LIG        -0.4970 
      8 CL1        27.8890   -3.3520   26.1570 Cl        1 LIG        -0.1800 
      9 C2         35.8100   -1.3650   17.5700 C.ar      1 LIG        -0.1817 
     10 N2         28.6940   -4.2190   20.2800 N.am      1 LIG        -0.5203 
     11 C3         35.2680   -2.6930   17.6520 C.ar      1 LIG        -0.3290 
     12 C4         32.9910   -1.7930   17.3300 C.ar      1 LIG         0.4982 
     13 C5         33.8510   -2.8760   17.5260 C.ar      1 LIG         0.2299 
     14 C6         31.8170   -3.6120   17.3910 C.ar      1 LIG         0.3638 
     15 C7         30.6800   -4.6180   17.3710 C.3       1 LIG         0.3350 
     16 C8         29.8180   -4.5620   19.6690 C.2       1 LIG         0.6995 
     17 C9         28.6060   -4.0250   21.6600 C.ar      1 LIG         0.1066 
     18 C10        29.6810   -4.1380   22.6140 C.ar      1 LIG        -0.1150 
     19 C11        29.4400   -3.9230   23.9980 C.ar      1 LIG        -0.1150 
     20 C12        28.1270   -3.5960   24.4610 C.ar      1 LIG         0.1800 
     21 C13        27.0460   -3.4840   23.5100 C.ar      1 LIG         0.1800 
     22 C14        27.3000   -3.6970   22.1180 C.ar      1 LIG        -0.1150 
     23 C15        29.7870   -4.6020   16.2040 C.3       1 LIG        -0.1800 
     24 HXT        32.8292    0.3753   17.1005 H         1 LIG         0.2091 
     25 H1         35.3275    0.7529   17.3186 H         1 LIG         0.1514 
     26 HN1        33.3948   -4.9733   17.7000 H         1 LIG         0.4072 
     27 H2         36.8733   -1.2026   17.6731 H         1 LIG         0.1607 
     28 HN2        27.9285   -3.9165   19.6934 H         1 LIG         0.2912 
     29 H3         35.9197   -3.5392   17.8106 H         1 LIG         0.1984 
     30 H7         31.0725   -5.6238   17.5280 H         1 LIG         0.0300 
     31 H10        30.6899   -4.3640   22.3177 H         1 LIG         0.1150 
     32 H11        30.2544   -4.0164   24.6971 H         1 LIG         0.1150 
     33 H14        26.4907   -3.5947   21.4122 H         1 LIG         0.1150 
     34 H151       30.3312   -4.9443   15.3240 H         1 LIG         0.0600 
     35 H152       28.9225   -5.2600   16.3142 H         1 LIG         0.0600 
     36 H153       29.4427   -3.6003   15.9649 H         1 LIG         0.0600 
@<TRIPOS>BOND
     1    1    5 ar   
     2    1   12 ar   
     3    1   24 1    
     4    2   12 ar   
     5    2   14 ar   
     6    3   15 1    
     7    3   16 1    
     8    4   21 1    
     9    5    9 ar   
    10    5   25 1    
    11    6   13 ar   
    12    6   14 ar   
    13    6   26 1    
    14    7   16 2    
    15    8   20 1    
    16    9   11 ar   
    17    9   27 1    
    18   10   16 am   BACKBONE|DICT|INTERRES
    19   10   17 1    
    20   10   28 1    
    21   11   13 ar   
    22   11   29 1    
    23   12   13 ar   
    24   14   15 1    
    25   15   23 1    
    26   15   30 1    
    27   17   18 ar   
    28   17   22 ar   
    29   18   19 ar   
    30   18   31 1    
    31   19   20 ar   
    32   19   32 1    
    33   20   21 ar   
    34   21   22 ar   
    35   22   33 1    
    36   23   34 1    
    37   23   35 1    
    38   23   36 1    
@<TRIPOS>SUBSTRUCTURE
     1 LIG         1 GROUP             0       ****    0 ROOT    
