3ary_ligand

Created by X-TOOL on Fri Nov 18 16:23:17 2016
 26 28  0  0  0  0  0  0  0  0999 V2000
   14.0610   -7.8490   23.9780  C 0  0  0  1  0  3
   15.4410   -7.9020   24.0520  C 0  0  0  2  0  3
   16.1020   -8.6000   23.0670  C 0  0  0  1  0  3
   15.4320   -9.2490   22.0120  C 0  0  0  1  0  3
   14.0680   -9.2030   21.9740  C 0  0  0  2  0  3
   13.3640   -8.4790   22.9420  C 0  0  0  2  0  3
   17.3950   -8.7960   22.8920  C 0  0  0  2  0  3
   17.5340   -9.5030   21.7780  C 0  0  0  1  0  3
   16.3690   -9.8100   21.1840  O 0  0  0  1  0  2
   18.6910   -9.9940   21.2870  C 0  0  0  1  0  3
   18.7630  -10.6620   20.1330  N 0  0  0  1  0  2
   20.1740  -11.1900   20.0320  C 0  0  0  3  0  4
   20.9100  -10.7770   21.3290  C 0  0  0  3  0  4
   19.8480  -10.0360   22.0560  N 0  0  0  2  0  3
   13.3970   -7.2030   24.9130  N 0  0  0  1  0  2
   13.7413   -7.4368   26.0133  C 0  0  0  1  0  2
   14.1801   -7.7192   27.5099  S 0  0  0  1  0  1
   15.9811   -7.4128   24.8546  H 0  0  0  1  0  1
   13.5301   -9.7280   21.1930  H 0  0  0  1  0  1
   12.2837   -8.4066   22.8894  H 0  0  0  1  0  1
   18.1966   -8.4440   23.5396  H 0  0  0  1  0  1
   20.6782  -10.7536   19.1572  H 0  0  0  1  0  1
   20.1607  -12.2859   19.9387  H 0  0  0  1  0  1
   21.7729  -10.1303   21.1117  H 0  0  0  1  0  1
   21.2453  -11.6572   21.8972  H 0  0  0  1  0  1
   19.9531   -9.6159   22.9906  H 0  0  0  1  0  1
  1  2  4  0  0  1
  1  6  4  0  0  1
  1 15  1  0  0  2
  2  3  4  0  0  1
  3  4  4  0  0  1
  3  7  1  0  0  1
  4  5  4  0  0  1
  4  9  1  0  0  1
  5  6  4  0  0  1
  7  8  2  0  0  1
  8  9  1  0  0  1
  8 10  1  0  0  2
 10 11  2  0  0  1
 10 14  1  0  0  1
 11 12  1  0  0  1
 12 13  1  0  0  1
 13 14  1  0  0  1
 15 16  2  0  0  2
 16 17  2  0  0  2
  2 18  1  0  0  2
  5 19  1  0  0  2
  6 20  1  0  0  2
  7 21  1  0  0  2
 12 22  1  0  0  2
 12 23  1  0  0  2
 13 24  1  0  0  2
 13 25  1  0  0  2
 14 26  1  0  0  2
M  END
> <MOLECULAR_FORMULA>
C12H9N3OS

> <MOLECULAR_WEIGHT>
243.2

> <NUM_HB_ATOMS>
3  

> <NUM_ROTOR>
0  

> <XLOGP2>
2.98 

$$$$
