@<TRIPOS>MOLECULE
:3ary_ligand
27   29    1
SMALL
USER_CHARGES


@<TRIPOS>ATOM
      1 C1         14.0610   -7.8490   23.9780 C.ar      1 LIG        -0.0046 
      2 C2         15.4410   -7.9020   24.0520 C.ar      1 LIG        -0.3038 
      3 C3         16.1020   -8.6000   23.0670 C.ar      1 LIG         0.2581 
      4 C4         15.4320   -9.2490   22.0120 C.ar      1 LIG         0.3230 
      5 C5         14.0680   -9.2030   21.9740 C.ar      1 LIG        -0.3245 
      6 C6         13.3640   -8.4790   22.9420 C.ar      1 LIG        -0.1228 
      7 C7         17.3950   -8.7960   22.8920 C.2       1 LIG        -0.5146 
      8 C8         17.5340   -9.5030   21.7780 C.2       1 LIG         0.2513 
      9 O9         16.3690   -9.8100   21.1840 O.3       1 LIG        -0.3115 
     10 C10        18.6910   -9.9940   21.2870 C.2       1 LIG         0.3668 
     11 N11        18.7630  -10.6620   20.1330 N.pl3     1 LIG        -0.3409 
     12 C12        20.1740  -11.1900   20.0320 C.3       1 LIG         0.1924 
     13 C13        20.9100  -10.7770   21.3290 C.3       1 LIG         0.1924 
     14 N14        19.8480  -10.0360   22.0560 N.pl3     1 LIG        -0.3409 
     15 N15        13.3970   -7.2030   24.9130 N.2       1 LIG        -0.2671 
     16 C16        13.7413   -7.4368   26.0133 C.1       1 LIG         0.2438 
     17 S17        14.1801   -7.7192   27.5099 S.2       1 LIG        -0.0075 
     18 H2         16.0218   -7.4078   24.8193 H         1 LIG         0.1930 
     19 H5         13.5348   -9.6949   21.1731 H         1 LIG         0.1955 
     20 H6         12.2851   -8.4316   22.8973 H         1 LIG         0.1498 
     21 H7         18.1751   -8.4413   23.5482 H         1 LIG         0.2419 
     22 HN11       18.0144  -10.8245   19.4742 H         1 LIG         0.3451 
     23 H121       20.6644  -10.7870   19.1477 H         1 LIG         0.0600 
     24 H122       20.1488  -12.2751   19.9300 H         1 LIG         0.0600 
     25 H131       21.7769  -10.1497   21.1384 H         1 LIG         0.0600 
     26 H132       21.2270  -11.6466   21.9049 H         1 LIG         0.0600 
     27 HN14       19.9519   -9.6583   22.9865 H         1 LIG         0.3451 
@<TRIPOS>BOND
     1    1    2 ar   
     2    1    6 ar   
     3    1   15 1    
     4    2    3 ar   
     5    2   18 1    
     6    3    4 ar   
     7    3    7 1    
     8    4    5 ar   
     9    4    9 1    
    10    5    6 ar   
    11    5   19 1    
    12    6   20 1    
    13    7    8 2    
    14    7   21 1    
    15    8    9 1    
    16    8   10 1    
    17   10   11 2    
    18   10   14 1    
    19   11   12 1    
    20   11   22 1    
    21   12   13 1    
    22   12   23 1    
    23   12   24 1    
    24   13   14 1    
    25   13   25 1    
    26   13   26 1    
    27   14   27 1    
    28   15   16 2    
    29   16   17 2    
@<TRIPOS>SUBSTRUCTURE
     1 LIG         1 GROUP             0       ****    0 ROOT    
