@<TRIPOS>MOLECULE
:1gpk_ligand
37   39    1
SMALL
USER_CHARGES


@<TRIPOS>ATOM
      1 C1          0.7260   68.8480   60.5950 C.ar      1 LIG         0.5567 
      2 O1          0.2650   69.3310   59.5260 O.2       1 LIG        -0.5000 
      3 N1          2.0070   68.2910   60.6140 N.pl3     1 LIG        -0.3513 
      4 C2          0.0030   68.8250   61.8590 C.ar      1 LIG        -0.1717 
      5 C3          0.5760   68.2720   62.9860 C.ar      1 LIG        -0.1150 
      6 C4          1.9080   67.6940   62.9880 C.ar      1 LIG         0.0000 
      7 C5          2.6240   67.7230   61.7490 C.ar      1 LIG         0.0513 
      8 C6          4.0170   67.1690   61.5600 C.3       1 LIG        -0.1200 
      9 C7          4.6570   66.5980   62.9020 C.3       1 LIG        -0.0600 
     10 C8          5.3760   67.6940   63.7160 C.2       1 LIG        -0.1150 
     11 C9          4.3520   63.5530   63.7420 C.3       1 LIG        -0.1800 
     12 C10         3.4630   64.6910   64.1430 C.2       1 LIG        -0.1150 
     13 C11         3.5630   65.9670   63.7940 C.2       1 LIG         0.0000 
     14 C12         2.5690   67.0470   64.2830 C.3       1 LIG         0.3100 
     15 N2          1.5080   66.4560   65.1460 N.4       1 LIG        -0.3000 
     16 C13         3.3210   68.1300   65.1110 C.3       1 LIG        -0.1200 
     17 C14         4.7650   68.3870   64.7180 C.2       1 LIG         0.0000 
     18 C15         5.4530   69.4590   65.5360 C.3       1 LIG        -0.1800 
     19 HN1         2.5465   68.2815   59.7564 H         1 LIG         0.3000 
     20 H2         -0.9841   69.2589   61.9212 H         1 LIG         0.1150 
     21 H3          0.0034   68.2928   63.9011 H         1 LIG         0.1150 
     22 H61         4.6593   67.9447   61.1413 H         1 LIG         0.0600 
     23 H62         3.9857   66.3845   60.8167 H         1 LIG         0.0600 
     24 H7          5.4072   65.8565   62.6363 H         1 LIG         0.0600 
     25 H8          6.4014   67.9084   63.4486 H         1 LIG         0.1150 
     26 H91         4.3518   62.7910   64.5190 H         1 LIG         0.0600 
     27 H92         4.0157   63.0953   62.8188 H         1 LIG         0.0600 
     28 H93         5.3776   63.8804   63.5894 H         1 LIG         0.0600 
     29 H10         2.6362   64.3504   64.7459 H         1 LIG         0.1150 
     30 H21         1.9336   65.9840   65.9309 H         1 LIG         0.3300 
     31 H22         0.9018   67.1899   65.4826 H         1 LIG         0.3300 
     32 H23         0.9626   65.7958   64.6085 H         1 LIG         0.3300 
     33 H131        3.3529   67.8250   66.1580 H         1 LIG         0.0600 
     34 H132        2.7702   69.0712   65.0907 H         1 LIG         0.0600 
     35 H151        4.9294   70.4036   65.4331 H         1 LIG         0.0600 
     36 H152        5.4634   69.1884   66.5878 H         1 LIG         0.0600 
     37 H153        6.4844   69.6027   65.2134 H         1 LIG         0.0600 
@<TRIPOS>BOND
     1    1    4 ar   
     2    1    3 ar   
     3    1    2 2    
     4    3    7 ar   
     5    3   19 1    
     6    4    5 ar   
     7    4   20 1    
     8    5    6 ar   
     9    5   21 1    
    10    6    7 ar   
    11    6   14 1    
    12    7    8 1    
    13    8    9 1    
    14    8   22 1    
    15    8   23 1    
    16    9   13 1    
    17    9   10 1    
    18    9   24 1    
    19   10   17 2    
    20   10   25 1    
    21   11   12 1    
    22   11   26 1    
    23   11   27 1    
    24   11   28 1    
    25   12   13 2    
    26   12   29 1    
    27   13   14 1    
    28   14   16 1    
    29   14   15 1    
    30   15   30 1    
    31   15   31 1    
    32   15   32 1    
    33   16   17 1    
    34   16   33 1    
    35   16   34 1    
    36   17   18 1    
    37   18   35 1    
    38   18   36 1    
    39   18   37 1    
@<TRIPOS>SUBSTRUCTURE
     1 LIG         1 GROUP             0       ****    0 ROOT    
