:1gpk_ligand
                    3D
 Schrodinger Suite 2020-1.
 37 39  0  0  1  0            999 V2000
    0.7260   68.8480   60.5950 C   0  0  0  0  0  0
    0.2650   69.3310   59.5260 O   0  0  0  0  0  0
    2.0070   68.2910   60.6140 N   0  0  0  0  0  0
    0.0030   68.8250   61.8590 C   0  0  0  0  0  0
    0.5760   68.2720   62.9860 C   0  0  0  0  0  0
    1.9080   67.6940   62.9880 C   0  0  0  0  0  0
    2.6240   67.7230   61.7490 C   0  0  0  0  0  0
    4.0170   67.1690   61.5600 C   0  0  0  0  0  0
    4.6570   66.5980   62.9020 C   0  0  1  0  0  0
    5.3760   67.6940   63.7160 C   0  0  0  0  0  0
    4.3520   63.5530   63.7420 C   0  0  0  0  0  0
    3.4630   64.6910   64.1430 C   0  0  0  0  0  0
    3.5630   65.9670   63.7940 C   0  0  0  0  0  0
    2.5690   67.0470   64.2830 C   0  0  2  0  0  0
    1.5080   66.4560   65.1460 N   0  3  0  0  0  0
    3.3210   68.1300   65.1110 C   0  0  0  0  0  0
    4.7650   68.3870   64.7180 C   0  0  0  0  0  0
    5.4530   69.4590   65.5360 C   0  0  0  0  0  0
    2.5465   68.2815   59.7564 H   0  0  0  0  0  0
   -0.9841   69.2589   61.9212 H   0  0  0  0  0  0
    0.0034   68.2928   63.9011 H   0  0  0  0  0  0
    4.6593   67.9447   61.1413 H   0  0  0  0  0  0
    3.9857   66.3845   60.8167 H   0  0  0  0  0  0
    5.4072   65.8565   62.6363 H   0  0  0  0  0  0
    6.4014   67.9084   63.4486 H   0  0  0  0  0  0
    4.3518   62.7910   64.5190 H   0  0  0  0  0  0
    4.0157   63.0953   62.8188 H   0  0  0  0  0  0
    5.3776   63.8804   63.5894 H   0  0  0  0  0  0
    2.6362   64.3504   64.7459 H   0  0  0  0  0  0
    1.9336   65.9840   65.9309 H   0  0  0  0  0  0
    0.9018   67.1899   65.4826 H   0  0  0  0  0  0
    0.9626   65.7958   64.6085 H   0  0  0  0  0  0
    3.3529   67.8250   66.1580 H   0  0  0  0  0  0
    2.7702   69.0712   65.0907 H   0  0  0  0  0  0
    4.9294   70.4036   65.4331 H   0  0  0  0  0  0
    5.4634   69.1884   66.5878 H   0  0  0  0  0  0
    6.4844   69.6027   65.2134 H   0  0  0  0  0  0
  1  4  1  0  0  0
  1  3  1  0  0  0
  1  2  2  0  0  0
  3  7  1  0  0  0
  3 19  1  0  0  0
  4  5  2  0  0  0
  4 20  1  0  0  0
  5  6  1  0  0  0
  5 21  1  0  0  0
  6  7  2  0  0  0
  6 14  1  0  0  0
  7  8  1  0  0  0
  8  9  1  0  0  0
  8 22  1  0  0  0
  8 23  1  0  0  0
  9 13  1  0  0  0
  9 10  1  0  0  0
  9 24  1  0  0  0
 10 17  2  0  0  0
 10 25  1  0  0  0
 11 12  1  0  0  0
 11 26  1  0  0  0
 11 27  1  0  0  0
 11 28  1  0  0  0
 12 13  2  0  0  0
 12 29  1  0  0  0
 13 14  1  0  0  0
 14 16  1  0  0  0
 14 15  1  0  0  0
 15 30  1  0  0  0
 15 31  1  0  0  0
 15 32  1  0  0  0
 16 17  1  0  0  0
 16 33  1  0  0  0
 16 34  1  0  0  0
 17 18  1  0  0  0
 18 35  1  0  0  0
 18 36  1  0  0  0
 18 37  1  0  0  0
M  CHG  1  15   1
M  END
> <s_pdb_PDB_ID>


> <s_pdb_PDB_CLASSIFICATION>
1GPK_PROTEIN

> <s_pdb_PDB_format_version>
3.0

> <b_ppw_prepared>
1

> <s_ppw_prepared_with_version>
2020-1

> <b_ppw_created_disulfur>
1

> <s_ppw_het_states>
eJxdkkEOgzAMBL8ScaYVTrELfKXiB6i3nhB/b4yjTgMHNGxI1rvK3km3pFd5RhutT8PaJ8cnOIHzD3UABczgAxxBBXFT3BQ3xc2Km1TEzXCz08255ohh654qTFeh2GZCxvhC1EiZCRxZhdixJTcCtr4WRQidRB1CM5G5FRRBXbA/l3N0b0woL87IVNjOcWYxuQptqeEiVButird6G+7l572bi1Sui38efXp/ti3e63p8ARPme+E=

> <r_ff_Potential_Energy-OPLS3e>
-280539.035088037

> <r_ff_RMS_Derivative-OPLS3e>
0.0478725966068675

> <b_ff_Minimization_Converged-OPLS3e>
1

> <r_i_Potential_Energy-OPLS_2005>
-16402.7237258868

> <r_i_RMS_Derivative-OPLS_2005>
0.0547919118889038

> <r_i_Max_Derivative-OPLS_2005>
2.38463373647315

> <r_i_Stretch_Energy-OPLS_2005>
22.4868072923234

> <r_i_Bend_Energy-OPLS_2005>
387.093219414223

> <r_i_LJ-14_Energy-OPLS_2005>
723.801967477611

> <r_i_El-14_Energy-OPLS_2005>
-572.580556191125

> <r_i_Van_der_Waals_Energy-OPLS_2005>
-1105.03424700671

> <r_i_Electrostatic_Energy-OPLS_2005>
-16072.3950318141

> <r_i_Dihedral_Energy-OPLS_2005>
213.904114940953

> <r_i_target_temperature>
298

> <s_user_Residue_ID>
_:1

$$$$
