@<TRIPOS>MOLECULE
:4cr9_ligand
25   26    1
SMALL
USER_CHARGES


@<TRIPOS>ATOM
      1 C1         49.6750   23.0710   11.9230 C.3       1 LIG        -0.0650 
      2 C2         49.9300   21.6020   11.8740 C.ar      1 LIG         0.1184 
      3 C3         48.8390   20.7680   11.8230 C.ar      1 LIG        -0.3161 
      4 C4         49.0270   19.4100   11.7740 C.ar      1 LIG         0.6002 
      5 N5         50.2450   18.8590   11.7770 N.pl3     1 LIG        -0.9537 
      6 C6         51.3080   19.6710   11.8290 C.ar      1 LIG         0.4796 
      7 C7         51.2010   21.0540   11.8790 C.ar      1 LIG         0.0061 
      8 C8         52.3300   21.8510   11.9300 C.ar      1 LIG        -0.1879 
      9 C9         53.5870   21.2750   11.9340 C.ar      1 LIG         0.2254 
     10 C10        53.7030   19.9050   11.8850 C.ar      1 LIG         0.0746 
     11 C11        52.5750   19.1240   11.8340 C.ar      1 LIG        -0.4661 
     12 N12        54.7520   22.0450   11.9860 N.pl3     1 LIG        -0.9200 
     13 N13        47.8810   18.6090   11.7190 N.pl3     1 LIG        -0.3000 
     14 H11        50.0098   23.5534   11.0043 H         1 LIG         0.0600 
     15 H12        48.6191   23.2894   12.0602 H         1 LIG         0.0600 
     16 H13        50.1986   23.5130   12.7706 H         1 LIG         0.0600 
     17 H3         47.8379   21.1762   11.8191 H         1 LIG         0.2145 
     18 HN5        50.3685   17.8431   11.7380 H         1 LIG         0.4004 
     19 H8         52.2558   22.9275   11.9643 H         1 LIG         0.1942 
     20 H10        54.6763   19.4366   11.8894 H         1 LIG         0.1614 
     21 H11        52.6963   18.0522   11.8015 H         1 LIG         0.2340 
     22 H121       55.6294   21.5993   12.2140 H         1 LIG         0.3600 
     23 H122       54.6853   23.0126   12.2679 H         1 LIG         0.3600 
     24 H131       47.9594   17.6359   11.4519 H         1 LIG         0.3000 
     25 H132       46.9779   19.0223   11.5371 H         1 LIG         0.3000 
@<TRIPOS>BOND
     1    1    2 1    
     2    1   14 1    
     3    1   15 1    
     4    1   16 1    
     5    2    3 ar   
     6    2    7 ar   
     7    3    4 ar   
     8    3   17 1    
     9    4    5 ar   
    10    4   13 1    
    11    5    6 ar   
    12    5   18 1    
    13    6    7 ar   
    14    6   11 ar   
    15    7    8 ar   
    16    8    9 ar   
    17    8   19 1    
    18    9   10 ar   
    19    9   12 1    
    20   10   11 ar   
    21   10   20 1    
    22   11   21 1    
    23   12   22 1    
    24   12   23 1    
    25   13   24 1    
    26   13   25 1    
@<TRIPOS>SUBSTRUCTURE
     1 LIG         1 GROUP             0       ****    0 ROOT    
