@<TRIPOS>MOLECULE
:2wtv_ligand
48   52    1
SMALL
USER_CHARGES


@<TRIPOS>ATOM
      1 C13         0.2390   -8.1290   -4.3300 C.3       1 LIG         0.2152 
      2 C15         1.5590  -10.1680   -4.3770 C.2       1 LIG         0.3809 
      3 C17         1.0890  -12.5210   -5.1880 C.ar      1 LIG         0.2200 
      4 C20         1.7190  -14.4680   -3.8830 C.ar      1 LIG        -0.1150 
      5 C21         2.2810  -13.6300   -2.9140 C.ar      1 LIG        -0.1150 
      6 C22         2.2390  -12.2390   -3.0830 C.ar      1 LIG         0.2200 
      7 C24         2.9340   -9.5980   -4.6240 C.ar      1 LIG         0.0044 
      8 C26         5.0930   -9.7350   -5.6530 C.ar      1 LIG         0.1800 
      9 C28         5.4760   -8.5410   -5.0110 C.ar      1 LIG        -0.1150 
     10 O01         9.5690   -4.9640   -0.1350 O.co2     1 LIG        -0.8000 
     11 C02         8.7770   -4.1540    0.2010 C.2       1 LIG         0.7150 
     12 O03         9.1800   -2.9230    0.7240 O.co2     1 LIG        -0.8000 
     13 C04         7.3020   -4.4660    0.0580 C.ar      1 LIG        -0.1150 
     14 C05         6.9150   -5.6960   -0.4810 C.ar      1 LIG        -0.1150 
     15 C06         5.5550   -5.9820   -0.6070 C.ar      1 LIG        -0.1150 
     16 C07         4.6090   -5.0330   -0.1950 C.ar      1 LIG         0.2000 
     17 N08         3.2160   -5.3050   -0.4440 N.pl3     1 LIG        -0.7043 
     18 C09         2.4760   -6.0720   -1.4070 C.ar      1 LIG         0.9663 
     19 N10         1.1010   -5.9200   -1.4820 N.ar      1 LIG        -0.8390 
     20 C11         0.4110   -6.6000   -2.4270 C.ar      1 LIG         0.6530 
     21 C12         1.0880   -7.4230   -3.2650 C.ar      1 LIG        -0.6070 
     22 N14         0.4600   -9.5510   -4.2780 N.2       1 LIG        -0.6099 
     23 C16         1.6450  -11.6800   -4.2210 C.ar      1 LIG         0.0044 
     24 F18         0.5450  -11.9900   -6.3170 F         1 LIG        -0.2200 
     25 C19         1.1230  -13.9090   -5.0180 C.ar      1 LIG        -0.1150 
     26 F23         2.8150  -11.4270   -2.1510 F         1 LIG        -0.2200 
     27 C25         3.8160  -10.2700   -5.4520 C.ar      1 LIG        -0.1150 
     28 CL1         6.1860  -10.5820   -6.7780 Cl        1 LIG        -0.1800 
     29 C29         4.5820   -7.8700   -4.1700 C.ar      1 LIG        -0.1150 
     30 C30         3.3080   -8.4120   -3.9780 C.ar      1 LIG         0.0000 
     31 C31         2.4830   -7.5850   -3.1770 C.ar      1 LIG         0.6640 
     32 N32         3.1740   -6.9130   -2.2750 N.ar      1 LIG        -0.8390 
     33 C33         4.9960   -3.8040    0.3330 C.ar      1 LIG        -0.1150 
     34 C34         6.3570   -3.5220    0.4630 C.ar      1 LIG        -0.1150 
     35 H131        0.5516   -7.7509   -5.3046 H         1 LIG         0.0600 
     36 H132       -0.8182   -7.8926   -4.2740 H         1 LIG         0.0600 
     37 H20         1.7699  -15.5322   -3.7291 H         1 LIG         0.1150 
     38 H21         2.7481  -14.0550   -2.0372 H         1 LIG         0.1150 
     39 H28         6.4597   -8.1326   -5.1819 H         1 LIG         0.1150 
     40 H05         7.6427   -6.4328   -0.7909 H         1 LIG         0.1150 
     41 H06         5.2727   -6.9431   -1.0050 H         1 LIG         0.1150 
     42 HN08        2.6174   -4.7010    0.1046 H         1 LIG         0.3800 
     43 H11        -0.6497   -6.4651   -2.4615 H         1 LIG         0.0110 
     44 H19         0.7103  -14.5503   -5.7796 H         1 LIG         0.1150 
     45 H25         3.5355  -11.1740   -5.9689 H         1 LIG         0.1150 
     46 H29         4.9401   -6.9419   -3.7541 H         1 LIG         0.1150 
     47 H33         4.2541   -3.1070    0.6849 H         1 LIG         0.1150 
     48 H34         6.6629   -2.5786    0.8916 H         1 LIG         0.1150 
@<TRIPOS>BOND
     1    1   21 1    
     2    1   22 1    
     3    1   35 1    
     4    1   36 1    
     5    2    7 1    
     6    2   22 2    
     7    2   23 1    
     8    3   23 ar   
     9    3   24 1    
    10    3   25 ar   
    11    4    5 ar   
    12    4   25 ar   
    13    4   37 1    
    14    5    6 ar   
    15    5   38 1    
    16    6   23 ar   
    17    6   26 1    
    18    7   27 ar   
    19    7   30 ar   
    20    8    9 ar   
    21    8   27 ar   
    22    8   28 1    
    23    9   29 ar   
    24    9   39 1    
    25   10   11 2    
    26   11   12 1    
    27   11   13 1    
    28   13   14 ar   
    29   13   34 ar   
    30   14   15 ar   
    31   14   40 1    
    32   15   16 ar   
    33   15   41 1    
    34   16   17 1    
    35   16   33 ar   
    36   17   18 1    
    37   17   42 1    
    38   18   19 ar   
    39   18   32 ar   
    40   19   20 ar   
    41   20   21 ar   
    42   20   43 1    
    43   21   31 ar   
    44   25   44 1    
    45   27   45 1    
    46   29   30 ar   
    47   29   46 1    
    48   30   31 1    
    49   31   32 ar   
    50   33   34 ar   
    51   33   47 1    
    52   34   48 1    
@<TRIPOS>SUBSTRUCTURE
     1 LIG         1 GROUP             0       ****    0 ROOT    
