@<TRIPOS>MOLECULE
:2yge_ligand
80   81    1
SMALL
USER_CHARGES


@<TRIPOS>ATOM
      1 C1         26.0300  -34.1660   -5.2680 C.2       1 LIG         0.0000 
      2 C2         26.0820  -33.8880   -3.7670 C.2       1 LIG         0.4700 
      3 C3         25.5010  -32.5830   -3.2040 C.2       1 LIG         0.0513 
      4 C4         24.8850  -31.6070   -4.1030 C.2       1 LIG        -0.1150 
      5 C5         24.8440  -31.8760   -5.6120 C.2       1 LIG         0.4700 
      6 C6         25.4150  -33.1840   -6.1650 C.2       1 LIG         0.0850 
      7 C7         26.0620  -35.6430   -5.6960 C.3       1 LIG        -0.1200 
      8 C8         24.5910  -36.0570   -5.5350 C.3       1 LIG        -0.0600 
      9 C9         23.9870  -36.2980   -6.9260 C.3       1 LIG        -0.1200 
     10 C10        22.7220  -37.1610   -6.8220 C.3       1 LIG         0.1700 
     11 C11        21.6530  -36.6490   -7.8100 C.3       1 LIG         0.2050 
     12 C12        21.3060  -35.1790   -7.4850 C.3       1 LIG        -0.0600 
     13 C13        20.4200  -35.1370   -6.2350 C.2       1 LIG        -0.1150 
     14 C14        20.4830  -34.0080   -5.3080 C.2       1 LIG        -0.0690 
     15 C15        19.5580  -34.0120   -4.0960 C.3       1 LIG         0.2890 
     16 C16        20.4190  -34.1040   -2.8280 C.3       1 LIG         0.2390 
     17 C17        21.0130  -35.5220   -2.7370 C.2       1 LIG        -0.1840 
     18 C18        22.3230  -35.6760   -2.0870 C.2       1 LIG        -0.1150 
     19 C19        23.2300  -34.4470   -1.9430 C.2       1 LIG        -0.1150 
     20 C20        24.5100  -34.6060   -1.2390 C.2       1 LIG        -0.0567 
     21 C21        25.2120  -33.3270   -0.7890 C.2       1 LIG         0.5567 
     22 N22        25.5520  -32.3130   -1.7690 N.am      1 LIG        -0.3513 
     23 O23        26.5800  -34.7080   -3.0430 O.2       1 LIG        -0.4700 
     24 O24        24.3510  -31.0890   -6.3640 O.2       1 LIG        -0.4700 
     25 O25        25.3620  -33.4160   -7.5710 O.3       1 LIG        -0.2850 
     26 C26        26.2530  -32.4960   -8.2170 C.3       1 LIG         0.1100 
     27 C27        24.4860  -37.2570   -4.5780 C.3       1 LIG        -0.1800 
     28 O28        23.0780  -38.5110   -7.1330 O.3       1 LIG        -0.4000 
     29 C29        24.0930  -38.5440   -8.1490 C.3       1 LIG         0.1100 
     30 O30        22.1550  -36.7280   -9.1450 O.3       1 LIG        -0.6830 
     31 C31        20.4700  -34.5870   -8.6320 C.3       1 LIG        -0.1800 
     32 C32        21.4400  -32.8250   -5.5390 C.3       1 LIG        -0.1800 
     33 O33        18.9090  -32.7520   -4.0990 O.3       1 LIG        -0.3300 
     34 C34        17.6350  -32.7490   -4.7530 C.2       1 LIG         0.6325 
     35 O35        17.2740  -33.6370   -5.4820 O.2       1 LIG        -0.4970 
     36 N36        16.7830  -31.5840   -4.5260 N.am      1 LIG        -0.8839 
     37 O37        19.6120  -33.8410   -1.6760 O.3       1 LIG        -0.4000 
     38 C38        18.3790  -34.5610   -1.7420 C.3       1 LIG         0.1100 
     39 C39        24.7810  -35.8790   -0.4210 C.3       1 LIG        -0.1800 
     40 O40        25.4780  -33.1720    0.3660 O.2       1 LIG        -0.5000 
     41 H4         24.4986  -30.6759   -3.7342 H         1 LIG         0.1150 
     42 H71        26.7417  -36.2209   -5.0685 H         1 LIG         0.0600 
     43 H72        26.4549  -35.7129   -6.7100 H         1 LIG         0.0600 
     44 H8         23.9776  -35.2881   -5.0582 H         1 LIG         0.0600 
     45 H91        24.7610  -36.4589   -7.6656 H         1 LIG         0.0600 
     46 H92        23.8052  -35.2995   -7.2687 H         1 LIG         0.0600 
     47 H10        22.2425  -37.1276   -5.8471 H         1 LIG         0.0300 
     48 H11        20.7619  -37.2770   -7.7575 H         1 LIG         0.0600 
     49 H12        22.1072  -34.4648   -7.3838 H         1 LIG         0.0600 
     50 H13        19.7260  -35.9485   -6.0716 H         1 LIG         0.1150 
     51 H15        18.8712  -34.8572   -4.1675 H         1 LIG         0.0300 
     52 H16        21.1369  -33.2967   -2.8661 H         1 LIG         0.0300 
     53 H17        20.3992  -36.3799   -2.9411 H         1 LIG         0.1150 
     54 H18        22.6966  -36.6721   -1.9071 H         1 LIG         0.1150 
     55 H19        23.0034  -33.4715   -2.3324 H         1 LIG         0.1150 
     56 HN22       25.8781  -31.4061   -1.4705 H         1 LIG         0.3000 
     57 H261       26.5626  -32.9247   -9.1693 H         1 LIG         0.0300 
     58 H262       25.7666  -31.5460   -8.4360 H         1 LIG         0.0300 
     59 H263       27.1617  -32.3045   -7.6426 H         1 LIG         0.0300 
     60 H271       23.4770  -37.4531   -4.2225 H         1 LIG         0.0600 
     61 H272       24.8738  -38.1547   -5.0530 H         1 LIG         0.0600 
     62 H273       25.0771  -37.0856   -3.6779 H         1 LIG         0.0600 
     63 H291       24.0267  -39.5478   -8.5682 H         1 LIG         0.0300 
     64 H292       24.0906  -37.9091   -9.0281 H         1 LIG         0.0300 
     65 H293       25.0876  -38.5337   -7.6980 H         1 LIG         0.0300 
     66 HO30       22.2954  -37.6422   -9.3441 H         1 LIG         0.4180 
     67 H311       20.0571  -33.6188   -8.3495 H         1 LIG         0.0600 
     68 H312       21.0884  -34.4145   -9.5052 H         1 LIG         0.0600 
     69 H313       19.6396  -35.2358   -8.9105 H         1 LIG         0.0600 
     70 H321       21.2028  -31.9707   -4.9095 H         1 LIG         0.0600 
     71 H322       22.4489  -33.1483   -5.2961 H         1 LIG         0.0600 
     72 H323       21.4142  -32.4808   -6.5727 H         1 LIG         0.0600 
     73 H361       15.8693  -31.5354   -4.9755 H         1 LIG         0.4142 
     74 H362       17.1298  -30.8448   -3.9340 H         1 LIG         0.4142 
     75 H381       17.9298  -34.5135   -0.7504 H         1 LIG         0.0300 
     76 H382       17.6281  -34.1574   -2.4160 H         1 LIG         0.0300 
     77 H383       18.5318  -35.6182   -1.9353 H         1 LIG         0.0300 
     78 H391       25.7765  -35.8509    0.0222 H         1 LIG         0.0600 
     79 H392       24.0585  -35.9736    0.3896 H         1 LIG         0.0600 
     80 H393       24.7340  -36.7663   -1.0504 H         1 LIG         0.0600 
@<TRIPOS>BOND
     1    1    2 1    
     2    1    6 2    
     3    1    7 1    
     4    2    3 1    
     5    2   23 2    
     6    3    4 2    
     7    3   22 1    
     8    4    5 1    
     9    4   41 1    
    10    5    6 1    
    11    5   24 2    
    12    6   25 1    
    13    7    8 1    
    14    7   42 1    
    15    7   43 1    
    16    8    9 1    
    17    8   27 1    
    18    8   44 1    
    19    9   10 1    
    20    9   45 1    
    21    9   46 1    
    22   10   11 1    
    23   10   28 1    
    24   10   47 1    
    25   11   12 1    
    26   11   30 1    
    27   11   48 1    
    28   12   13 1    
    29   12   31 1    
    30   12   49 1    
    31   13   14 2    
    32   13   50 1    
    33   14   15 1    
    34   14   32 1    
    35   15   16 1    
    36   15   33 1    
    37   15   51 1    
    38   16   17 1    
    39   16   37 1    
    40   16   52 1    
    41   17   18 2    
    42   17   53 1    
    43   18   19 1    
    44   18   54 1    
    45   19   20 2    
    46   19   55 1    
    47   20   21 1    
    48   20   39 1    
    49   21   22 am   BACKBONE|DICT|INTERRES
    50   21   40 2    
    51   22   56 1    
    52   25   26 1    
    53   26   57 1    
    54   26   58 1    
    55   26   59 1    
    56   27   60 1    
    57   27   61 1    
    58   27   62 1    
    59   28   29 1    
    60   29   63 1    
    61   29   64 1    
    62   29   65 1    
    63   30   66 1    
    64   31   67 1    
    65   31   68 1    
    66   31   69 1    
    67   32   70 1    
    68   32   71 1    
    69   32   72 1    
    70   33   34 1    
    71   34   35 2    
    72   34   36 am   BACKBONE|DICT|INTERRES
    73   36   73 1    
    74   36   74 1    
    75   37   38 1    
    76   38   75 1    
    77   38   76 1    
    78   38   77 1    
    79   39   78 1    
    80   39   79 1    
    81   39   80 1    
@<TRIPOS>SUBSTRUCTURE
     1 LIG         1 GROUP             0       ****    0 ROOT    
