@<TRIPOS>MOLECULE
:1h22_ligand
78   81    1
SMALL
USER_CHARGES


@<TRIPOS>ATOM
      1 C1          4.6110   59.5350   71.3530 C.ar      1 LIG         0.5567 
      2 N2          3.7670   58.4830   71.6150 N.pl3     1 LIG        -0.3513 
      3 C3          2.7900   58.4320   72.5350 C.ar      1 LIG         0.0513 
      4 C4          2.5470   59.5350   73.3460 C.ar      1 LIG         0.0000 
      5 C5          3.4020   60.7310   73.1820 C.ar      1 LIG        -0.1150 
      6 C6          4.4030   60.7540   72.2300 C.ar      1 LIG        -0.1717 
      7 O7          5.4310   59.4610   70.4410 O.2       1 LIG        -0.5000 
      8 C9          2.0090   57.0990   72.6480 C.3       1 LIG        -0.1200 
      9 C10         1.4540   59.5250   74.4340 C.3       1 LIG         0.2300 
     10 C13         0.7230   58.1450   74.5910 C.3       1 LIG        -0.1200 
     11 C14         0.6170   57.3300   73.2570 C.3       1 LIG        -0.1200 
     12 N17         0.4270   60.6230   74.0930 N.4       1 LIG        -0.2000 
     13 C24        -0.3570   60.4920   72.7930 C.3       1 LIG         0.1700 
     14 C29         0.9910   68.3680   60.8990 C.ar      1 LIG         0.5567 
     15 N30         2.3790   68.3900   60.9720 N.pl3     1 LIG        -0.3513 
     16 C31         3.1540   68.3130   62.0900 C.ar      1 LIG         0.0513 
     17 C32         2.5630   68.1880   63.3530 C.ar      1 LIG         0.0000 
     18 C33         1.0760   68.1260   63.4100 C.ar      1 LIG        -0.1150 
     19 C34         0.2890   68.2110   62.2470 C.ar      1 LIG        -0.1717 
     20 O35         0.4230   68.5620   59.8060 O.2       1 LIG        -0.5000 
     21 C36         4.6770   68.3630   61.8600 C.3       1 LIG        -0.1200 
     22 C37         3.4630   68.1010   64.6320 C.3       1 LIG         0.2300 
     23 C38         4.9830   67.9090   64.3050 C.3       1 LIG        -0.1200 
     24 C39         5.4440   68.7620   63.1480 C.3       1 LIG        -0.1200 
     25 N40         3.1490   66.9030   65.5150 N.4       1 LIG        -0.2000 
     26 C41         4.1450   66.5400   66.6350 C.3       1 LIG         0.1700 
     27 C63        -0.8540   61.8630   72.3690 C.3       1 LIG        -0.1200 
     28 C64         0.2800   62.8330   72.0220 C.3       1 LIG        -0.1200 
     29 C65         1.0520   62.4120   70.8010 C.3       1 LIG        -0.1200 
     30 C66         1.7930   63.5830   70.1510 C.3       1 LIG        -0.1200 
     31 C67         3.2970   63.2790   70.1170 C.3       1 LIG        -0.1200 
     32 C68         4.1290   63.8550   68.9560 C.3       1 LIG        -0.1200 
     33 C69         4.2940   65.3940   68.9250 C.3       1 LIG        -0.1200 
     34 C70         3.3800   66.0170   67.8370 C.3       1 LIG        -0.1200 
     35 HN2         3.8801   57.6446   71.0511 H         1 LIG         0.3000 
     36 H5          3.2464   61.5881   73.8171 H         1 LIG         0.1150 
     37 H6          5.0364   61.6214   72.1148 H         1 LIG         0.1150 
     38 H91         2.5814   56.4128   73.2730 H         1 LIG         0.0600 
     39 H92         1.8958   56.6320   71.6712 H         1 LIG         0.0600 
     40 H10         1.9126   59.7974   75.3853 H         1 LIG         0.0600 
     41 H131       -0.2634   58.2786   75.0365 H         1 LIG         0.0600 
     42 H132        1.2869   57.5405   75.3027 H         1 LIG         0.0600 
     43 H141        0.1310   56.3714   73.4411 H         1 LIG         0.0600 
     44 H142       -0.0152   57.8585   72.5558 H         1 LIG         0.0600 
     45 H171        0.9419   61.4900   74.0403 H         1 LIG         0.3100 
     46 H172       -0.2325   60.6988   74.8542 H         1 LIG         0.3100 
     47 H241       -1.2013   59.8219   72.9560 H         1 LIG         0.0600 
     48 H242        0.2510   60.0557   72.0017 H         1 LIG         0.0600 
     49 HN30        2.8761   68.5043   60.1006 H         1 LIG         0.3000 
     50 H33         0.5853   68.0182   64.3660 H         1 LIG         0.1150 
     51 H34        -0.7889   68.1682   62.3009 H         1 LIG         0.1150 
     52 H361        4.9119   69.0550   61.0502 H         1 LIG         0.0600 
     53 H362        5.0012   67.3740   61.5339 H         1 LIG         0.0600 
     54 H37         3.3272   69.0177   65.2071 H         1 LIG         0.0600 
     55 H381        5.1962   66.8680   64.0539 H         1 LIG         0.0600 
     56 H382        5.6100   68.1605   65.1579 H         1 LIG         0.0600 
     57 H391        5.2729   69.8154   63.3740 H         1 LIG         0.0600 
     58 H392        6.5171   68.6450   62.9930 H         1 LIG         0.0600 
     59 H401        3.0472   66.0902   64.9238 H         1 LIG         0.3100 
     60 H402        2.2540   67.0844   65.9462 H         1 LIG         0.3100 
     61 H411        4.6969   67.4174   66.9655 H         1 LIG         0.0600 
     62 H412        4.8621   65.8052   66.2664 H         1 LIG         0.0600 
     63 H631       -1.4462   62.2788   73.1819 H         1 LIG         0.0600 
     64 H632       -1.5324   61.7708   71.5214 H         1 LIG         0.0600 
     65 H641        0.9564   62.9827   72.8639 H         1 LIG         0.0600 
     66 H642       -0.1841   63.8031   71.8386 H         1 LIG         0.0600 
     67 H651        0.3598   62.0195   70.0561 H         1 LIG         0.0600 
     68 H652        1.7034   61.5770   71.0538 H         1 LIG         0.0600 
     69 H661        1.6484   64.5082   70.7105 H         1 LIG         0.0600 
     70 H662        1.4319   63.8094   69.1779 H         1 LIG         0.0600 
     71 H671        3.4463   62.2031   70.0308 H         1 LIG         0.0600 
     72 H672        3.7420   63.5597   71.0701 H         1 LIG         0.0600 
     73 H681        3.7884   63.4588   67.9987 H         1 LIG         0.0600 
     74 H682        5.1300   63.4566   69.0967 H         1 LIG         0.0600 
     75 H691        5.3363   65.6451   68.7263 H         1 LIG         0.0600 
     76 H692        4.0673   65.8157   69.9054 H         1 LIG         0.0600 
     77 H701        2.6206   65.3036   67.5175 H         1 LIG         0.0600 
     78 H702        2.8254   66.8453   68.2801 H         1 LIG         0.0600 
@<TRIPOS>BOND
     1    1    7 2    
     2    1    6 ar   
     3    1    2 ar   
     4    2    3 ar   
     5    2   35 1    
     6    3    8 1    
     7    3    4 ar   
     8    4    9 1    
     9    4    5 ar   
    10    5    6 ar   
    11    5   36 1    
    12    6   37 1    
    13    8   11 1    
    14    8   38 1    
    15    8   39 1    
    16    9   12 1    
    17    9   10 1    
    18    9   40 1    
    19   10   11 1    
    20   10   41 1    
    21   10   42 1    
    22   11   43 1    
    23   11   44 1    
    24   12   13 1    
    25   12   45 1    
    26   12   46 1    
    27   13   27 1    
    28   13   47 1    
    29   13   48 1    
    30   14   15 ar   
    31   14   20 2    
    32   14   19 ar   
    33   15   16 ar   
    34   15   49 1    
    35   16   17 ar   
    36   16   21 1    
    37   17   22 1    
    38   17   18 ar   
    39   18   19 ar   
    40   18   50 1    
    41   19   51 1    
    42   21   24 1    
    43   21   52 1    
    44   21   53 1    
    45   22   25 1    
    46   22   23 1    
    47   22   54 1    
    48   23   24 1    
    49   23   55 1    
    50   23   56 1    
    51   24   57 1    
    52   24   58 1    
    53   25   26 1    
    54   25   59 1    
    55   25   60 1    
    56   26   34 1    
    57   26   61 1    
    58   26   62 1    
    59   27   28 1    
    60   27   63 1    
    61   27   64 1    
    62   28   29 1    
    63   28   65 1    
    64   28   66 1    
    65   29   30 1    
    66   29   67 1    
    67   29   68 1    
    68   30   31 1    
    69   30   69 1    
    70   30   70 1    
    71   31   32 1    
    72   31   71 1    
    73   31   72 1    
    74   32   33 1    
    75   32   73 1    
    76   32   74 1    
    77   33   34 1    
    78   33   75 1    
    79   33   76 1    
    80   34   77 1    
    81   34   78 1    
@<TRIPOS>SUBSTRUCTURE
     1 LIG         1 GROUP             0       ****    0 ROOT    
