@<TRIPOS>MOLECULE
:4gid_ligand
95   97    1
SMALL
USER_CHARGES


@<TRIPOS>ATOM
      1 CBK        49.5370   -2.5550    8.2710 C.3       1 LIG        -0.1800 
      2 CBL        48.9440   -3.5780    9.2390 C.3       1 LIG        -0.0600 
      3 CBM        50.0680   -4.4590    9.7920 C.3       1 LIG        -0.1800 
      4 CBN        48.1820   -2.8490   10.3470 C.3       1 LIG         0.0800 
      5 NBO        47.1100   -2.0110    9.7820 N.am      1 LIG        -0.5000 
      6 CBP        45.8260   -2.3550   10.4130 C.2       1 LIG         0.5000 
      7 OBV        45.8020   -2.8950   11.5220 O.2       1 LIG        -0.5000 
      8 CBG        44.6790   -1.4430    9.9430 C.3       1 LIG         0.2300 
      9 CBH        44.7780   -0.0930   10.6690 C.3       1 LIG         0.2050 
     10 CBJ        44.1370   -0.1340   12.0570 C.3       1 LIG        -0.1800 
     11 OBI        46.1190    0.4110   10.6990 O.3       1 LIG        -0.6830 
     12 NBF        43.3350   -2.0220   10.0970 N.4       1 LIG        -0.2000 
     13 CAX        43.1900   -3.2130    9.2450 C.3       1 LIG         0.1700 
     14 CAW        42.5960   -4.4150    9.9860 C.3       1 LIG         0.1400 
     15 CAY        42.4160   -5.5960    9.0260 C.3       1 LIG        -0.0050 
     16 CAZ        41.7140   -6.6480    9.6120 C.ar      1 LIG        -0.1150 
     17 CBA        40.7020   -7.2960    8.9110 C.ar      1 LIG        -0.1150 
     18 CBB        39.9550   -8.3050    9.5120 C.ar      1 LIG        -0.1150 
     19 CBC        40.2100   -8.6710   10.8290 C.ar      1 LIG        -0.1150 
     20 CBD        41.2180   -8.0210   11.5330 C.ar      1 LIG        -0.1150 
     21 CBE        41.9720   -7.0220   10.9270 C.ar      1 LIG        -0.1150 
     22 NAV        41.3080   -4.1170   10.6290 N.am      1 LIG        -0.5000 
     23 CAT        41.2570   -3.7410   11.9150 C.2       1 LIG         0.6150 
     24 OAU        42.2680   -3.5630   12.5920 O.2       1 LIG        -0.5000 
     25 CAP        39.9770   -3.5540   12.4310 C.ar      1 LIG        -0.1150 
     26 CAQ        38.9820   -4.4400   12.0330 C.ar      1 LIG        -0.1150 
     27 CAO        39.7370   -2.7010   13.5060 C.ar      1 LIG        -0.1150 
     28 CAN        38.5080   -2.6970   14.1650 C.ar      1 LIG         0.1750 
     29 NAE        38.3320   -2.0310   15.3090 N.pl3     1 LIG        -0.4705 
     30 CBT        39.4840   -1.1980   15.6850 C.3       1 LIG         0.0222 
     31 SAB        36.9310   -1.1840   15.4610 S.o2      1 LIG         0.9349 
     32 OAC        37.2200    0.2310   15.9630 O.2       1 LIG        -0.4680 
     33 OAD        36.1900   -1.1020   14.1240 O.2       1 LIG        -0.4680 
     34 CAA        35.8860   -2.0180   16.6380 C.3       1 LIG        -0.5305 
     35 CAS        37.5450   -3.6220   13.7750 C.ar      1 LIG        -0.1150 
     36 CAR        37.7670   -4.4860   12.7070 C.ar      1 LIG        -0.1150 
     37 CAL        36.7290   -5.2760   12.2270 C.2       1 LIG         0.6150 
     38 OAM        35.9770   -5.8600   13.0060 O.2       1 LIG        -0.5000 
     39 NBQ        36.7090   -5.4920   10.9040 N.am      1 LIG        -0.5000 
     40 CBR        35.6560   -6.3180   10.2940 C.3       1 LIG         0.2550 
     41 CBS        36.2840   -7.4870    9.5320 C.3       1 LIG        -0.1800 
     42 CAI        34.8310   -5.5730    9.4540 C.ar      1 LIG        -0.1150 
     43 CAH        33.4700   -5.4970    9.7240 C.ar      1 LIG        -0.1150 
     44 CAG        32.6490   -4.6400    8.9940 C.ar      1 LIG        -0.1150 
     45 CAF        33.1900   -3.8500    7.9860 C.ar      1 LIG        -0.1150 
     46 CAK        34.5520   -3.9280    7.7070 C.ar      1 LIG        -0.1150 
     47 CAJ        35.3660   -4.7930    8.4320 C.ar      1 LIG        -0.1150 
     48 HBK1       48.7703   -1.9701    7.7648 H         1 LIG         0.0600 
     49 HBK2       50.2026   -1.8581    8.7813 H         1 LIG         0.0600 
     50 HBK3       50.1175   -3.0452    7.4894 H         1 LIG         0.0600 
     51 HBL        48.2502   -4.2170    8.6908 H         1 LIG         0.0600 
     52 HBM1       49.6624   -5.2577   10.4106 H         1 LIG         0.0600 
     53 HBM2       50.6320   -4.9324    8.9875 H         1 LIG         0.0600 
     54 HBM3       50.7686   -3.8855   10.3996 H         1 LIG         0.0600 
     55 HBN1       48.8595   -2.1850   10.8854 H         1 LIG         0.0600 
     56 HBN2       47.9075   -3.6177   11.0641 H         1 LIG         0.0600 
     57 HNBO       47.2156   -1.4604    8.9415 H         1 LIG         0.3000 
     58 HBG        44.7976   -1.2362    8.8874 H         1 LIG         0.0600 
     59 HBH        44.2189    0.6286   10.0729 H         1 LIG         0.0600 
     60 HBJ1       43.4497    0.7017   12.0417 H         1 LIG         0.0600 
     61 HBJ2       43.6791   -1.0745   12.3531 H         1 LIG         0.0600 
     62 HBJ3       44.9261    0.2420   12.6972 H         1 LIG         0.0600 
     63 HOBI       46.4005    0.5867    9.8142 H         1 LIG         0.4180 
     64 HBF1       42.6563   -1.3244    9.7917 H         1 LIG         0.3100 
     65 HBF2       43.1725   -2.2666   11.0634 H         1 LIG         0.3100 
     66 HAX1       44.1157   -3.5156    8.7527 H         1 LIG         0.0600 
     67 HAX2       42.5244   -2.9313    8.4284 H         1 LIG         0.0600 
     68 HAW        43.3425   -4.6948   10.7187 H         1 LIG         0.0600 
     69 HAY1       43.3826   -5.9615    8.6786 H         1 LIG         0.0600 
     70 HAY2       41.8844   -5.2522    8.1373 H         1 LIG         0.0600 
     71 HBA        40.4778   -7.0158    7.8916 H         1 LIG         0.1150 
     72 HBB        39.1722   -8.7997    8.9562 H         1 LIG         0.1150 
     73 HBC        39.6315   -9.4529   11.2991 H         1 LIG         0.1150 
     74 HBD        41.3598   -8.3747   12.5312 H         1 LIG         0.1150 
     75 HBE        42.7496   -6.5616   11.5093 H         1 LIG         0.1150 
     76 HNAV       40.4527   -4.2337   10.0988 H         1 LIG         0.3000 
     77 HAQ        39.1819   -5.1927   11.2831 H         1 LIG         0.1150 
     78 HAO        40.5780   -2.0955   13.7940 H         1 LIG         0.1150 
     79 HBT1       39.3238   -0.7368   16.6600 H         1 LIG         0.0733 
     80 HBT2       40.3691   -1.8074   15.8430 H         1 LIG         0.0733 
     81 HBT3       39.6825   -0.3970   14.9712 H         1 LIG         0.0733 
     82 HAA1       34.9536   -1.4653   16.7476 H         1 LIG         0.1950 
     83 HAA2       35.6706   -3.0286   16.2935 H         1 LIG         0.1950 
     84 HAA3       36.3947   -2.0667   17.6002 H         1 LIG         0.1950 
     85 HAS        36.6059   -3.6835   14.3051 H         1 LIG         0.1150 
     86 HNBQ       37.3878   -5.0405   10.3053 H         1 LIG         0.3000 
     87 HBR        35.0328   -6.7931   11.0536 H         1 LIG         0.0600 
     88 HBS1       35.5205   -8.1268    9.0878 H         1 LIG         0.0600 
     89 HBS2       36.9428   -7.1481    8.7314 H         1 LIG         0.0600 
     90 HBS3       36.8799   -8.1083   10.2014 H         1 LIG         0.0600 
     91 HAH        33.0307   -6.0761   10.5237 H         1 LIG         0.1150 
     92 HAG        31.5942   -4.5809    9.2187 H         1 LIG         0.1150 
     93 HAF        32.5584   -3.1777    7.4240 H         1 LIG         0.1150 
     94 HAK        34.9794   -3.3137    6.9279 H         1 LIG         0.1150 
     95 HAJ        36.4214   -4.8297    8.2114 H         1 LIG         0.1150 
@<TRIPOS>BOND
     1    1    2 1    
     2    1   48 1    
     3    1   49 1    
     4    1   50 1    
     5    2    3 1    
     6    2    4 1    
     7    2   51 1    
     8    3   52 1    
     9    3   53 1    
    10    3   54 1    
    11    4    5 1    
    12    4   55 1    
    13    4   56 1    
    14    5    6 am   BACKBONE|DICT|INTERRES
    15    5   57 1    
    16    6    7 2    
    17    6    8 1    
    18    8    9 1    
    19    8   12 1    
    20    8   58 1    
    21    9   10 1    
    22    9   11 1    
    23    9   59 1    
    24   10   60 1    
    25   10   61 1    
    26   10   62 1    
    27   11   63 1    
    28   12   13 1    
    29   12   64 1    
    30   12   65 1    
    31   13   14 1    
    32   13   66 1    
    33   13   67 1    
    34   14   15 1    
    35   14   22 1    
    36   14   68 1    
    37   15   16 1    
    38   15   69 1    
    39   15   70 1    
    40   16   17 ar   
    41   16   21 ar   
    42   17   18 ar   
    43   17   71 1    
    44   18   19 ar   
    45   18   72 1    
    46   19   20 ar   
    47   19   73 1    
    48   20   21 ar   
    49   20   74 1    
    50   21   75 1    
    51   22   23 am   BACKBONE|DICT|INTERRES
    52   22   76 1    
    53   23   24 2    
    54   23   25 1    
    55   25   26 ar   
    56   25   27 ar   
    57   26   36 ar   
    58   26   77 1    
    59   27   28 ar   
    60   27   78 1    
    61   28   29 1    
    62   28   35 ar   
    63   29   30 1    
    64   29   31 1    
    65   30   79 1    
    66   30   80 1    
    67   30   81 1    
    68   31   32 2    
    69   31   33 2    
    70   31   34 1    
    71   34   82 1    
    72   34   83 1    
    73   34   84 1    
    74   35   36 ar   
    75   35   85 1    
    76   36   37 1    
    77   37   38 2    
    78   37   39 am   BACKBONE|DICT|INTERRES
    79   39   40 1    
    80   39   86 1    
    81   40   41 1    
    82   40   42 1    
    83   40   87 1    
    84   41   88 1    
    85   41   89 1    
    86   41   90 1    
    87   42   43 ar   
    88   42   47 ar   
    89   43   44 ar   
    90   43   91 1    
    91   44   45 ar   
    92   44   92 1    
    93   45   46 ar   
    94   45   93 1    
    95   46   47 ar   
    96   46   94 1    
    97   47   95 1    
@<TRIPOS>SUBSTRUCTURE
     1 LIG         1 GROUP             0       ****    0 ROOT    
