@<TRIPOS>MOLECULE
:3f3d_ligand
20   19    1
SMALL
USER_CHARGES


@<TRIPOS>ATOM
      1 N          24.7800   32.3240   18.9560 N.4       1 LIG         0.2475 
      2 CA         26.0420   31.5560   19.1590 C.3       1 LIG         0.0625 
      3 C          26.0530   30.2750   18.3320 C.2       1 LIG         0.4450 
      4 O          27.0750   29.5870   18.1880 O.co2     1 LIG        -0.7225 
      5 CB         26.2180   31.2200   20.6420 C.3       1 LIG        -0.1200 
      6 CG         26.4500   32.4190   21.5410 C.3       1 LIG         0.0475 
      7 SD         28.0080   33.2230   21.1440 S.3       1 LIG        -0.3350 
      8 CE         27.4780   34.8100   20.5360 C.3       1 LIG        -0.0125 
      9 OXT        25.0130   29.8920   17.7990 O.co2     1 LIG        -0.7225 
     10 H1         24.8371   33.2098   19.4389 H         1 LIG         0.2100 
     11 H2         24.6433   32.4711   17.9642 H         1 LIG         0.2100 
     12 H3         24.0081   31.7816   19.3199 H         1 LIG         0.2100 
     13 HA         26.8650   32.1715   18.7969 H         1 LIG         0.0600 
     14 HB1        27.0732   30.5528   20.7641 H         1 LIG         0.0600 
     15 HB2        25.3723   30.6473   21.0137 H         1 LIG         0.0600 
     16 HG1        26.5161   32.0793   22.5732 H         1 LIG         0.0600 
     17 HG2        25.6223   33.1242   21.5057 H         1 LIG         0.0600 
     18 HE1        28.3248   35.4156   20.2275 H         1 LIG         0.0600 
     19 HE2        26.8811   34.5828   19.6801 H         1 LIG         0.0600 
     20 HE3        26.9011   35.3497   21.2865 H         1 LIG         0.0600 
@<TRIPOS>BOND
     1    1    2 1    
     2    1   10 1    
     3    1   11 1    
     4    1   12 1    
     5    2    3 1    
     6    2    5 1    
     7    2   13 1    
     8    3    4 2    
     9    3    9 1    
    10    5    6 1    
    11    5   14 1    
    12    5   15 1    
    13    6    7 1    
    14    6   16 1    
    15    6   17 1    
    16    7    8 1    
    17    8   18 1    
    18    8   19 1    
    19    8   20 1    
@<TRIPOS>SUBSTRUCTURE
     1 LIG         1 GROUP             0       ****    0 ROOT    
