@<TRIPOS>MOLECULE
:2c3i_ligand
41   44    1
SMALL
USER_CHARGES


@<TRIPOS>ATOM
      1 CAJ        28.5410   50.6080   -2.6660 C.3       1 LIG        -0.1200 
      2 CAK        28.2110   50.7480   -4.1470 C.3       1 LIG        -0.1200 
      3 CAV        27.1030   50.4290   -3.1460 C.3       1 LIG        -0.0600 
      4 CAL        26.2020   51.6250   -2.8340 C.3       1 LIG         0.0800 
      5 NAO        27.0630   52.6920   -2.2940 N.pl3     1 LIG        -0.7800 
      6 CAS        27.1300   52.9170   -1.0060 C.ar      1 LIG         0.5813 
      7 CAF        27.4470   54.2010   -0.6080 C.ar      1 LIG        -0.3965 
      8 CAG        27.5020   54.4500    0.7490 C.ar      1 LIG        -0.1123 
      9 NAN        26.8670   51.9210   -0.1470 N.2       1 LIG        -0.5634 
     10 NAW        26.9220   52.1300    1.0650 N.pl3     1 LIG         0.6122 
     11 CAU        27.2480   53.3960    1.5850 C.ar      1 LIG         0.3196 
     12 NAM        27.2170   53.3200    2.8880 N.2       1 LIG        -0.6371 
     13 CAH        26.8950   52.0880    3.2510 C.ar      1 LIG         0.2227 
     14 CAT        26.7330   51.3480    2.1640 C.ar      1 LIG        -0.3484 
     15 CAR        26.3480   50.0310    2.1260 C.ar      1 LIG         0.0000 
     16 CAI        26.2150   49.3220    0.9430 C.ar      1 LIG        -0.1150 
     17 CAE        26.0300   49.4470    3.3460 C.ar      1 LIG        -0.1150 
     18 CAC        25.5900   48.1320    3.4240 C.ar      1 LIG        -0.1150 
     19 CAD        25.4830   47.4200    2.2460 C.ar      1 LIG        -0.1150 
     20 CAQ        25.8030   48.0170    1.0350 C.ar      1 LIG        -0.1150 
     21 CAP        25.6390   47.1570   -0.1820 C.2       1 LIG         0.5850 
     22 CAA        25.6130   47.7330   -1.6030 C.3       1 LIG        -0.1800 
     23 OAB        25.5090   45.9580    0.0200 O.2       1 LIG        -0.4700 
     24 HAJ1       29.0489   51.4762   -2.2546 H         1 LIG         0.0600 
     25 HAJ2       29.0222   49.6795   -2.3715 H         1 LIG         0.0600 
     26 HAK1       28.4841   49.9376   -4.8160 H         1 LIG         0.0600 
     27 HAK2       28.2381   51.7428   -4.5878 H         1 LIG         0.0600 
     28 HAV        26.6433   49.4583   -3.2874 H         1 LIG         0.0600 
     29 HAL1       25.4133   51.3313   -2.1400 H         1 LIG         0.0600 
     30 HAL2       25.7174   51.9661   -3.7493 H         1 LIG         0.0600 
     31 HNAO       27.2203   53.4898   -2.8926 H         1 LIG         0.3800 
     32 HAF        27.6104   54.9976   -1.3236 H         1 LIG         0.2032 
     33 HAG        27.7425   55.4315    1.1381 H         1 LIG         0.1891 
     34 HAH        26.7614   51.8841    4.2975 H         1 LIG         0.1296 
     35 HAI        26.4550   49.6779   -0.0390 H         1 LIG         0.1150 
     36 HAE        26.0654   49.9712    4.2862 H         1 LIG         0.1150 
     37 HAC        25.2397   47.8241    4.3517 H         1 LIG         0.1150 
     38 HAD        25.1015   46.4116    2.3136 H         1 LIG         0.1150 
     39 HAA1       25.0151   47.0982   -2.2571 H         1 LIG         0.0600 
     40 HAA2       25.1834   48.7344   -1.6136 H         1 LIG         0.0600 
     41 HAA3       26.6301   47.7657   -1.9913 H         1 LIG         0.0600 
@<TRIPOS>BOND
     1    1    2 1    
     2    1    3 1    
     3    1   24 1    
     4    1   25 1    
     5    2    3 1    
     6    2   26 1    
     7    2   27 1    
     8    3    4 1    
     9    3   28 1    
    10    4    5 1    
    11    4   29 1    
    12    4   30 1    
    13    5    6 1    
    14    5   31 1    
    15    6    7 ar   
    16    6    9 ar   
    17    7    8 ar   
    18    7   32 1    
    19    8   11 ar   
    20    8   33 1    
    21    9   10 ar   
    22   10   11 ar   
    23   10   14 ar   
    24   11   12 ar   
    25   12   13 ar   
    26   13   14 ar   
    27   13   34 1    
    28   14   15 1    
    29   15   16 ar   
    30   15   17 ar   
    31   16   20 ar   
    32   16   35 1    
    33   17   18 ar   
    34   17   36 1    
    35   18   19 ar   
    36   18   37 1    
    37   19   20 ar   
    38   19   38 1    
    39   20   21 1    
    40   21   22 1    
    41   21   23 2    
    42   22   39 1    
    43   22   40 1    
    44   22   41 1    
@<TRIPOS>SUBSTRUCTURE
     1 LIG         1 GROUP             0       ****    0 ROOT    
