@<TRIPOS>MOLECULE
:1o5b_ligand
21   22    1
SMALL
USER_CHARGES


@<TRIPOS>ATOM
      1 C0          8.1140   -0.8340   25.7320 C.2       1 LIG         0.6542 
      2 C1          8.4340    0.4560   25.3630 C.2       1 LIG         0.0737 
      3 N1          7.5200   -1.0380   26.8710 N.pl3     1 LIG        -0.7471 
      4 N2          8.4430   -1.7620   24.8810 N.pl3     1 LIG        -0.7471 
      5 S2          9.1450    0.8600   23.8020 S.3       1 LIG        -0.0683 
      6 C3          9.2620    2.5530   24.1340 C.ar      1 LIG        -0.0677 
      7 C4          8.7610    2.7660   25.4100 C.ar      1 LIG         0.4742 
      8 C5          8.3190    1.6440   26.0560 C.2       1 LIG        -0.4654 
      9 C6          9.7350    3.5820   23.3530 C.ar      1 LIG        -0.1358 
     10 C7          9.7120    4.8670   23.8710 C.ar      1 LIG        -0.2617 
     11 C8          9.2230    5.0950   25.1450 C.ar      1 LIG        -0.0101 
     12 C9          8.7480    4.0610   25.9310 C.ar      1 LIG        -0.1360 
     13 I9          8.1220    4.5890   27.7890 I         1 LIG        -0.1000 
     14 H11         7.3942   -1.9920   27.2022 H         1 LIG         0.4600 
     15 H12         7.2971   -0.2686   27.4937 H         1 LIG         0.4600 
     16 H21         8.3653   -2.7395   25.1458 H         1 LIG         0.4600 
     17 H22         8.8736   -1.5104   24.0033 H         1 LIG         0.4600 
     18 H5          7.9156    1.7029   27.0526 H         1 LIG         0.2229 
     19 H6         10.0957    3.3744   22.3604 H         1 LIG         0.1879 
     20 H7         10.0621    5.6932   23.2690 H         1 LIG         0.1618 
     21 H8          9.1753    6.1123   25.5020 H         1 LIG         0.1245 
@<TRIPOS>BOND
     1    1    2 1    
     2    1    3 2    
     3    1    4 1    
     4    2    5 1    
     5    2    8 2    
     6    3   14 1    
     7    3   15 1    
     8    4   16 1    
     9    4   17 1    
    10    5    6 1    
    11    6    7 ar   
    12    6    9 ar   
    13    7    8 1    
    14    7   12 ar   
    15    8   18 1    
    16    9   10 ar   
    17    9   19 1    
    18   10   11 ar   
    19   10   20 1    
    20   11   12 ar   
    21   11   21 1    
    22   12   13 1    
@<TRIPOS>SUBSTRUCTURE
     1 LIG         1 GROUP             0       ****    0 ROOT    
