1o5b_ligand

Created by X-TOOL on Fri Nov 18 13:41:05 2016
 21 22  0  0  0  0  0  0  0  0999 V2000
    8.1140   -0.8340   25.7320  C 0  3  0  1  0  3
    8.4340    0.4560   25.3630  C 0  0  0  1  0  3
    7.5200   -1.0380   26.8710  N 0  0  0  3  0  3
    8.4430   -1.7620   24.8810  N 0  0  0  3  0  3
    9.1450    0.8600   23.8020  S 0  0  0  1  0  2
    9.2620    2.5530   24.1340  C 0  0  0  1  0  3
    8.7610    2.7660   25.4100  C 0  0  0  1  0  3
    8.3190    1.6440   26.0560  C 0  0  0  2  0  3
    9.7350    3.5820   23.3530  C 0  0  0  2  0  3
    9.7120    4.8670   23.8710  C 0  0  0  2  0  3
    9.2230    5.0950   25.1450  C 0  0  0  2  0  3
    8.7480    4.0610   25.9310  C 0  0  0  1  0  3
    8.1220    4.5890   27.7890  I 0  0  0  1  0  1
    7.2750   -1.9958   27.1598  H 0  0  0  1  0  1
    7.2946   -0.2417   27.4842  H 0  0  0  1  0  1
    8.9126   -1.5096   23.9997  H 0  0  0  1  0  1
    8.2338   -2.7489   25.0887  H 0  0  0  1  0  1
    7.9001    1.6859   27.0603  H 0  0  0  1  0  1
   10.1165    3.3921   22.3563  H 0  0  0  1  0  1
   10.0782    5.6960   23.2763  H 0  0  0  1  0  1
    9.2119    6.1061   25.5356  H 0  0  0  1  0  1
  1  2  1  0  0  2
  1  3  2  0  0  2
  1  4  2  0  0  2
  2  5  1  0  0  1
  2  8  2  0  0  1
  5  6  1  0  0  1
  6  7  4  0  0  1
  6  9  4  0  0  1
  7  8  1  0  0  1
  7 12  4  0  0  1
  9 10  4  0  0  1
 10 11  4  0  0  1
 11 12  4  0  0  1
 12 13  1  0  0  2
  3 14  1  0  0  2
  3 15  1  0  0  2
  4 16  1  0  0  2
  4 17  1  0  0  2
  8 18  1  0  0  2
  9 19  1  0  0  2
 10 20  1  0  0  2
 11 21  1  0  0  2
M  END
> <MOLECULAR_FORMULA>
C9H8N2SI

> <MOLECULAR_WEIGHT>
303.1

> <NUM_HB_ATOMS>
2  

> <NUM_ROTOR>
0  

> <XLOGP2>
2.32 

$$$$
