@<TRIPOS>MOLECULE
:2j7h_ligand
22   22    1
SMALL
USER_CHARGES


@<TRIPOS>ATOM
      1 O4         -1.6300   10.6580    6.7330 O.3       1 LIG        -0.6830 
      2 C4         -1.1360   10.6320    8.0810 C.3       1 LIG         0.2050 
      3 C3         -0.3170   11.9080    8.4230 C.3       1 LIG         0.2050 
      4 O3          0.8150   12.0560    7.5660 O.3       1 LIG        -0.6830 
      5 C2          0.1820   11.9810    9.8740 C.3       1 LIG         0.0025 
      6 N          -0.8370   11.4630   10.8000 N.3       1 LIG        -0.3325 
      7 C5         -2.3020   10.5360    9.0620 C.3       1 LIG         0.0625 
      8 C6         -3.2410    9.3710    8.7770 C.3       1 LIG         0.1450 
      9 O6         -2.5130    8.1500    8.9590 O.3       1 LIG        -0.6830 
     10 N2         -1.6760   10.4190   10.3790 N.3       1 LIG        -0.3325 
     11 HO4        -1.9582    9.7972    6.4839 H         1 LIG         0.4180 
     12 H4         -0.4884    9.7577    8.1695 H         1 LIG         0.0600 
     13 H3         -0.9571   12.7763    8.2611 H         1 LIG         0.0600 
     14 HO3         0.5156   12.3769    6.7240 H         1 LIG         0.4180 
     15 H21         0.4738   12.9887   10.1646 H         1 LIG         0.0600 
     16 H22         1.0657   11.3512    9.9820 H         1 LIG         0.0600 
     17 HN         -0.4509   11.2742   11.7278 H         1 LIG         0.2100 
     18 H5         -2.8774   11.4614    9.0272 H         1 LIG         0.0600 
     19 H61        -3.6738    9.4161    7.7780 H         1 LIG         0.0600 
     20 H62        -4.0729    9.3853    9.4816 H         1 LIG         0.0600 
     21 HO6        -2.1379    7.8850    8.1242 H         1 LIG         0.4180 
     22 HN2        -1.1720    9.5386   10.4526 H         1 LIG         0.2100 
@<TRIPOS>BOND
     1    1    2 1    
     2    1   11 1    
     3    2    3 1    
     4    2    7 1    
     5    2   12 1    
     6    3    4 1    
     7    3    5 1    
     8    3   13 1    
     9    4   14 1    
    10    5    6 1    
    11    5   15 1    
    12    5   16 1    
    13    6   10 1    
    14    6   17 1    
    15    7    8 1    
    16    7   10 1    
    17    7   18 1    
    18    8    9 1    
    19    8   19 1    
    20    8   20 1    
    21    9   21 1    
    22   10   22 1    
@<TRIPOS>SUBSTRUCTURE
     1 LIG         1 GROUP             0       ****    0 ROOT    
