:4dld_ligand
                    3D
 Schrodinger Suite 2020-1.
 33 33  0  0  1  0            999 V2000
    3.3020   35.1610  102.0110 N   0  3  0  0  0  0
    0.3810   33.4090  103.2700 C   0  0  0  0  0  0
    1.7160   33.7160  103.0610 C   0  0  0  0  0  0
    2.0380   34.8030  102.2580 C   0  0  0  0  0  0
   -2.0590   33.7680  102.9980 C   0  0  0  0  0  0
   -2.6130   34.6330  104.1570 C   0  0  1  0  0  0
   -1.0050   37.6500  101.1960 C   0  0  0  0  0  0
   -4.8960   34.6360  103.5290 O   0  0  0  0  0  0
   -4.0640   34.2360  104.3720 C   0  0  0  0  0  0
   -4.2900   33.4930  105.3440 O   0  5  0  0  0  0
   -1.8730   34.3300  105.3870 N   0  3  0  0  0  0
   -0.6270   34.1780  102.6990 C   0  0  0  0  0  0
    2.9310   32.7310  103.8120 Cl  0  0  0  0  0  0
    3.5940   36.5220  101.7250 O   0  5  0  0  0  0
    4.3420   34.2130  101.9890 O   0  0  0  0  0  0
    1.0330   35.5630  101.6850 C   0  0  0  0  0  0
   -0.3070   35.2710  101.9000 C   0  0  0  0  0  0
   -1.3600   36.1580  101.2080 C   0  0  0  0  0  0
   -1.3510   38.2940  102.5460 C   0  0  0  0  0  0
   -2.4750   38.0500  103.0290 O   0  0  0  0  0  0
   -0.4850   39.0230  103.0620 O   0  5  0  0  0  0
    0.1291   32.5615  103.8882 H   0  0  0  0  0  0
   -2.6646   33.8841  102.1031 H   0  0  0  0  0  0
   -2.0934   32.7201  103.2830 H   0  0  0  0  0  0
   -2.5379   35.6969  103.9498 H   0  0  0  0  0  0
   -1.6834   38.1164  100.4852 H   0  0  0  0  0  0
   -0.0059   37.9114  100.8555 H   0  0  0  0  0  0
   -2.3292   34.7724  106.1742 H   0  0  0  0  0  0
   -1.8653   33.3302  105.5342 H   0  0  0  0  0  0
   -0.9233   34.6750  105.3234 H   0  0  0  0  0  0
    1.3088   36.3662  101.0234 H   0  0  0  0  0  0
   -1.4218   35.8141  100.1752 H   0  0  0  0  0  0
   -2.3586   36.0022  101.6117 H   0  0  0  0  0  0
  1  4  1  0  0  0
  1 14  1  0  0  0
  1 15  2  0  0  0
  2  3  2  0  0  0
  2 12  1  0  0  0
  2 22  1  0  0  0
  3  4  1  0  0  0
  3 13  1  0  0  0
  4 16  2  0  0  0
  5  6  1  0  0  0
  5 12  1  0  0  0
  5 23  1  0  0  0
  5 24  1  0  0  0
  6  9  1  0  0  0
  6 11  1  0  0  0
  6 25  1  0  0  0
  7 18  1  0  0  0
  7 19  1  0  0  0
  7 26  1  0  0  0
  7 27  1  0  0  0
  8  9  2  0  0  0
  9 10  1  0  0  0
 11 28  1  0  0  0
 11 29  1  0  0  0
 11 30  1  0  0  0
 12 17  2  0  0  0
 16 17  1  0  0  0
 16 31  1  0  0  0
 17 18  1  0  0  0
 18 32  1  0  0  0
 18 33  1  0  0  0
 19 20  2  0  0  0
 19 21  1  0  0  0
M  CHG  5   1   1  10  -1  11   1  14  -1  21  -1
M  END
> <s_pdb_PDB_ID>


> <s_pdb_PDB_CLASSIFICATION>
4DLD_PROTEIN

> <s_pdb_PDB_format_version>
3.0

> <b_ppw_prepared>
1

> <s_ppw_prepared_with_version>
2020-1

> <b_ppw_created_disulfur>
1

> <r_ff_Potential_Energy-OPLS3e>
-281444.000031521

> <r_ff_RMS_Derivative-OPLS3e>
0.048972271724555

> <b_ff_Minimization_Converged-OPLS3e>
1

> <r_i_Potential_Energy-OPLS_2005>
-15284.9513429353

> <r_i_RMS_Derivative-OPLS_2005>
0.0449781123478268

> <r_i_Max_Derivative-OPLS_2005>
1.6349298083052

> <r_i_Stretch_Energy-OPLS_2005>
16.9023569576372

> <r_i_Bend_Energy-OPLS_2005>
335.978832601988

> <r_i_LJ-14_Energy-OPLS_2005>
736.016046817586

> <r_i_El-14_Energy-OPLS_2005>
-538.883035350459

> <r_i_Van_der_Waals_Energy-OPLS_2005>
-1117.3283404174

> <r_i_Electrostatic_Energy-OPLS_2005>
-14895.0981114637

> <r_i_Dihedral_Energy-OPLS_2005>
177.460907919068

> <r_i_target_temperature>
298

> <s_user_Residue_ID>
_:1

$$$$
