@<TRIPOS>MOLECULE
:4dld_ligand
33   33    1
SMALL
USER_CHARGES


@<TRIPOS>ATOM
      1 N1          3.3020   35.1610  102.0110 N.pl3     1 LIG         0.6500 
      2 C4          0.3810   33.4090  103.2700 C.ar      1 LIG        -0.1150 
      3 C5          1.7160   33.7160  103.0610 C.ar      1 LIG         0.1800 
      4 C6          2.0380   34.8030  102.2580 C.ar      1 LIG         0.0900 
      5 C7         -2.0590   33.7680  102.9980 C.3       1 LIG        -0.0050 
      6 C8         -2.6130   34.6330  104.1570 C.3       1 LIG         0.0625 
      7 C10        -1.0050   37.6500  101.1960 C.3       1 LIG        -0.2200 
      8 O4         -4.8960   34.6360  103.5290 O.co2     1 LIG        -0.7225 
      9 C12        -4.0640   34.2360  104.3720 C.2       1 LIG         0.4450 
     10 O5         -4.2900   33.4930  105.3440 O.co2     1 LIG        -0.7225 
     11 N2         -1.8730   34.3300  105.3870 N.4       1 LIG         0.2475 
     12 C3         -0.6270   34.1780  102.6990 C.ar      1 LIG        -0.1150 
     13 CL1         2.9310   32.7310  103.8120 Cl        1 LIG        -0.1800 
     14 O1          3.5940   36.5220  101.7250 O.co2     1 LIG        -0.3700 
     15 O2          4.3420   34.2130  101.9890 O.co2     1 LIG        -0.3700 
     16 C1          1.0330   35.5630  101.6850 C.ar      1 LIG        -0.1150 
     17 C2         -0.3070   35.2710  101.9000 C.ar      1 LIG        -0.1150 
     18 C9         -1.3600   36.1580  101.2080 C.3       1 LIG        -0.0050 
     19 C11        -1.3510   38.2940  102.5460 C.2       1 LIG         0.7000 
     20 O7         -2.4750   38.0500  103.0290 O.co2     1 LIG        -0.8000 
     21 O6         -0.4850   39.0230  103.0620 O.co2     1 LIG        -0.8000 
     22 H4          0.1291   32.5615  103.8882 H         1 LIG         0.1150 
     23 H71        -2.6646   33.8841  102.1031 H         1 LIG         0.0600 
     24 H72        -2.0934   32.7201  103.2830 H         1 LIG         0.0600 
     25 H8         -2.5379   35.6969  103.9498 H         1 LIG         0.0600 
     26 H101       -1.6834   38.1164  100.4852 H         1 LIG         0.0600 
     27 H102       -0.0059   37.9114  100.8555 H         1 LIG         0.0600 
     28 H21        -2.3292   34.7724  106.1742 H         1 LIG         0.2100 
     29 H22        -1.8653   33.3302  105.5342 H         1 LIG         0.2100 
     30 H23        -0.9233   34.6750  105.3234 H         1 LIG         0.2100 
     31 H1          1.3088   36.3662  101.0234 H         1 LIG         0.1150 
     32 H91        -1.4218   35.8141  100.1752 H         1 LIG         0.0600 
     33 H92        -2.3586   36.0022  101.6117 H         1 LIG         0.0600 
@<TRIPOS>BOND
     1    1    4 1    
     2    1   14 1    
     3    1   15 2    
     4    2    3 ar   
     5    2   12 ar   
     6    2   22 1    
     7    3    4 ar   
     8    3   13 1    
     9    4   16 ar   
    10    5    6 1    
    11    5   12 1    
    12    5   23 1    
    13    5   24 1    
    14    6    9 1    
    15    6   11 1    
    16    6   25 1    
    17    7   18 1    
    18    7   19 1    
    19    7   26 1    
    20    7   27 1    
    21    8    9 2    
    22    9   10 1    
    23   11   28 1    
    24   11   29 1    
    25   11   30 1    
    26   12   17 ar   
    27   16   17 ar   
    28   16   31 1    
    29   17   18 1    
    30   18   32 1    
    31   18   33 1    
    32   19   20 2    
    33   19   21 1    
@<TRIPOS>SUBSTRUCTURE
     1 LIG         1 GROUP             0       ****    0 ROOT    
