4m0z_ligand

Created by X-TOOL on Fri Nov 18 17:47:57 2016
 39 41  0  0  0  0  0  0  0  0999 V2000
   -5.0220    8.4090   13.4570  N 0  0  0  1  0  3
   -6.1250    7.7550   13.8680  N 0  0  0  1  0  2
   -5.6690    6.7870   14.7270  C 0  0  0  1  0  3
   -4.2390    6.8540   14.8370  C 0  0  0  1  0  3
   -3.8370    7.9000   13.9990  C 0  0  0  2  0  3
   -3.4710    6.0150   15.6350  N 0  0  0  2  0  3
   -2.0750    6.1640   15.7150  C 0  0  0  1  0  3
   -1.4230    5.3190   16.6040  N 0  0  0  3  0  3
   -1.4390    6.9880   15.0480  O 0  0  0  1  0  1
   -6.5460    5.8330   15.4100  C 0  0  0  1  0  3
   -7.8650    5.7950   15.0340  N 0  0  0  3  0  3
   -6.1220    5.0730   16.2890  O 0  0  0  1  0  1
   -5.0590    9.4900   12.5140  C 0  0  0  1  0  3
   -4.3940    9.3150   11.3240  C 0  0  0  2  0  3
   -4.4060   10.3480   10.3650  C 0  0  0  2  0  3
   -5.0860   11.5090   10.6150  C 0  0  0  2  0  3
   -5.7410   10.6980   12.8320  C 0  0  0  1  0  3
   -5.7400   11.7080   11.8550  C 0  0  0  1  0  3
   -6.4030   12.9370   12.1190  C 0  0  0  2  0  3
   -7.0370   13.1430   13.3030  C 0  0  0  2  0  3
   -7.0270   12.1070   14.2810  C 0  0  0  1  0  3
   -6.3960   10.9090   14.0710  C 0  0  0  2  0  3
   -7.6780   12.4760   15.4180  O 0  0  0  1  0  2
   -7.9950   11.4610   16.3350  C 0  0  0  4  0  4
   -2.8211    8.2436   13.8096  H 0  0  0  1  0  1
   -3.9189    5.2925   16.1617  H 0  0  0  1  0  1
   -0.4300    5.3735   16.7088  H 0  0  0  1  0  1
   -1.9466    4.6561   17.1392  H 0  0  0  1  0  1
   -8.4934    5.1564   15.4782  H 0  0  0  1  0  1
   -8.1980    6.4059   14.3157  H 0  0  0  1  0  1
   -3.8647    8.3903   11.1246  H 0  0  0  1  0  1
   -3.8757   10.2226    9.4279  H 0  0  0  1  0  1
   -5.1243   12.2831    9.8571  H 0  0  0  1  0  1
   -6.4029   13.7185   11.3677  H 0  0  0  1  0  1
   -7.5427   14.0813   13.5005  H 0  0  0  1  0  1
   -6.3977   10.1401   14.8351  H 0  0  0  1  0  1
   -8.5151   11.8979   17.2002  H 0  0  0  1  0  1
   -7.0704   10.9700   16.6727  H 0  0  0  1  0  1
   -8.6479   10.7200   15.8506  H 0  0  0  1  0  1
  1  2  1  0  0  1
  1  5  1  0  0  1
  1 13  1  0  0  2
  2  3  2  0  0  1
  3  4  1  0  0  1
  3 10  1  0  0  2
  4  5  2  0  0  1
  4  6  1  0  0  2
  6  7  1  0  0  2
  7  8  1  0  0  2
  7  9  2  0  0  2
 10 11  1  0  0  2
 10 12  2  0  0  2
 13 14  4  0  0  1
 13 17  4  0  0  1
 14 15  4  0  0  1
 15 16  4  0  0  1
 16 18  4  0  0  1
 17 18  4  0  0  1
 17 22  4  0  0  1
 18 19  4  0  0  1
 19 20  4  0  0  1
 20 21  4  0  0  1
 21 22  4  0  0  1
 21 23  1  0  0  2
 23 24  1  0  0  2
  5 25  1  0  0  2
  6 26  1  0  0  2
  8 27  1  0  0  2
  8 28  1  0  0  2
 11 29  1  0  0  2
 11 30  1  0  0  2
 14 31  1  0  0  2
 15 32  1  0  0  2
 16 33  1  0  0  2
 19 34  1  0  0  2
 20 35  1  0  0  2
 22 36  1  0  0  2
 24 37  1  0  0  2
 24 38  1  0  0  2
 24 39  1  0  0  2
M  END
> <MOLECULAR_FORMULA>
C16H15N5O3

> <MOLECULAR_WEIGHT>
325.2

> <NUM_HB_ATOMS>
8  

> <NUM_ROTOR>
1  

> <XLOGP2>
0.67 

$$$$
