@<TRIPOS>MOLECULE
:4m0z_ligand
39   41    1
SMALL
USER_CHARGES


@<TRIPOS>ATOM
      1 N1         -5.0220    8.4090   13.4570 N.pl3     1 LIG         0.1189 
      2 N2         -6.1250    7.7550   13.8680 N.2       1 LIG        -0.5310 
      3 C1         -5.6690    6.7870   14.7270 C.ar      1 LIG         0.2230 
      4 C2         -4.2390    6.8540   14.8370 C.ar      1 LIG        -0.0850 
      5 C3         -3.8370    7.9000   13.9990 C.ar      1 LIG         0.0360 
      6 N3         -3.4710    6.0150   15.6350 N.am      1 LIG        -0.4511 
      7 C4         -2.0750    6.1640   15.7150 C.2       1 LIG         0.8220 
      8 N4         -1.4230    5.3190   16.6040 N.am      1 LIG        -0.9592 
      9 O1         -1.4390    6.9880   15.0480 O.2       1 LIG        -0.6163 
     10 C5         -6.5460    5.8330   15.4100 C.2       1 LIG         0.6150 
     11 N5         -7.8650    5.7950   15.0340 N.am      1 LIG        -0.7600 
     12 O2         -6.1220    5.0730   16.2890 O.2       1 LIG        -0.5000 
     13 C6         -5.0590    9.4900   12.5140 C.ar      1 LIG         0.0731 
     14 C7         -4.3940    9.3150   11.3240 C.ar      1 LIG        -0.1150 
     15 C8         -4.4060   10.3480   10.3650 C.ar      1 LIG        -0.1150 
     16 C9         -5.0860   11.5090   10.6150 C.ar      1 LIG        -0.1150 
     17 C10        -5.7410   10.6980   12.8320 C.ar      1 LIG         0.0000 
     18 C11        -5.7400   11.7080   11.8550 C.ar      1 LIG         0.0000 
     19 C12        -6.4030   12.9370   12.1190 C.ar      1 LIG        -0.1150 
     20 C13        -7.0370   13.1430   13.3030 C.ar      1 LIG        -0.1150 
     21 C14        -7.0270   12.1070   14.2810 C.ar      1 LIG         0.0850 
     22 C15        -6.3960   10.9090   14.0710 C.ar      1 LIG        -0.1150 
     23 O3         -7.6780   12.4760   15.4180 O.3       1 LIG        -0.2850 
     24 C16        -7.9950   11.4610   16.3350 C.3       1 LIG         0.1100 
     25 H3         -2.8810    8.3284   13.7385 H         1 LIG         0.1350 
     26 HN3        -3.9415    5.3101   16.1868 H         1 LIG         0.2912 
     27 H41        -0.4135    5.3531   16.7037 H         1 LIG         0.4142 
     28 H42        -1.9615    4.6278   17.1115 H         1 LIG         0.4142 
     29 H51        -8.4867    5.1161   15.4518 H         1 LIG         0.3800 
     30 H52        -8.2056    6.4161   14.3086 H         1 LIG         0.3800 
     31 H7         -3.9107    8.3751   11.1153 H         1 LIG         0.1150 
     32 H8         -3.9049   10.2094    9.4187 H         1 LIG         0.1150 
     33 H9         -5.1387   12.2728    9.8573 H         1 LIG         0.1150 
     34 H12        -6.3745   13.7267   11.3860 H         1 LIG         0.1150 
     35 H13        -7.5479   14.0612   13.5303 H         1 LIG         0.1150 
     36 H15        -6.4074   10.1418   14.8259 H         1 LIG         0.1150 
     37 H161       -8.6293   11.8742   17.1193 H         1 LIG         0.0300 
     38 H162       -8.5475   10.6470   15.8620 H         1 LIG         0.0300 
     39 H163       -7.1007   11.0620   16.8143 H         1 LIG         0.0300 
@<TRIPOS>BOND
     1    1    2 ar   
     2    1    5 ar   
     3    1   13 1    
     4    2    3 ar   
     5    3    4 ar   
     6    3   10 1    
     7    4    5 ar   
     8    4    6 1    
     9    5   25 1    
    10    6    7 am   BACKBONE|DICT|INTERRES
    11    6   26 1    
    12    7    8 am   BACKBONE|DICT|INTERRES
    13    7    9 2    
    14    8   27 1    
    15    8   28 1    
    16   10   11 am   BACKBONE|DICT|INTERRES
    17   10   12 2    
    18   11   29 1    
    19   11   30 1    
    20   13   14 ar   
    21   13   17 ar   
    22   14   15 ar   
    23   14   31 1    
    24   15   16 ar   
    25   15   32 1    
    26   16   18 ar   
    27   16   33 1    
    28   17   18 ar   
    29   17   22 ar   
    30   18   19 ar   
    31   19   20 ar   
    32   19   34 1    
    33   20   21 ar   
    34   20   35 1    
    35   21   22 ar   
    36   21   23 1    
    37   22   36 1    
    38   23   24 1    
    39   24   37 1    
    40   24   38 1    
    41   24   39 1    
@<TRIPOS>SUBSTRUCTURE
     1 LIG         1 GROUP             0       ****    0 ROOT    
