@<TRIPOS>MOLECULE
:3arp_ligand
74   77    1
SMALL
USER_CHARGES


@<TRIPOS>ATOM
      1 C1          9.0850   -8.0530   30.0430 C.ar      1 LIG        -0.1150 
      2 C2          8.4490   -9.0840   30.6940 C.ar      1 LIG        -0.1150 
      3 C3          7.7220   -8.7950   31.8640 C.ar      1 LIG        -0.1150 
      4 C4          7.6750   -7.4440   32.4090 C.ar      1 LIG        -0.1150 
      5 C5          9.0630   -6.7670   30.5360 C.ar      1 LIG         0.2000 
      6 C6          8.4020   -6.4350   31.7420 C.ar      1 LIG         0.0044 
      7 C7          8.3690   -5.1060   32.1870 C.2       1 LIG         0.3492 
      8 C8          9.0400   -4.1070   31.5050 C.3       1 LIG        -0.0839 
      9 C9          9.7420   -4.4320   30.3440 C.3       1 LIG         0.1753 
     10 N1          9.7700   -5.7550   29.8520 N.pl3     1 LIG        -0.4533 
     11 C10        20.2190  -10.0840   21.7800 C.ar      1 LIG         0.0000 
     12 C11        18.9390   -9.6710   22.2570 C.ar      1 LIG         0.2100 
     13 N2         17.7780   -9.9610   21.5400 N.pl3     1 LIG        -0.6300 
     14 C12        17.8440  -10.5580   20.2500 C.3       1 LIG         0.1500 
     15 C13        19.1010  -10.9110   19.8030 C.2       1 LIG        -0.1150 
     16 C14        20.2700  -10.6490   20.5210 C.2       1 LIG         0.0180 
     17 C15        21.3490   -9.8090   22.4880 C.ar      1 LIG        -0.1150 
     18 C16        21.2610   -9.1750   23.7020 C.ar      1 LIG        -0.1150 
     19 C17        20.0370   -8.7800   24.1710 C.ar      1 LIG        -0.1150 
     20 C18        18.8710   -9.0140   23.5180 C.ar      1 LIG        -0.1150 
     21 C19        16.3950   -9.6810   21.9960 C.3       1 LIG         0.0900 
     22 C20        15.9590   -8.2140   21.8590 C.3       1 LIG        -0.1200 
     23 C21        15.1700   -7.9340   23.1560 C.3       1 LIG        -0.1200 
     24 C22        13.8110   -8.5140   22.9920 C.3       1 LIG        -0.1200 
     25 C23        12.9850   -8.0970   24.2650 C.3       1 LIG        -0.1200 
     26 C24        11.8670   -7.0420   23.8940 C.3       1 LIG        -0.1200 
     27 C25        10.7280   -6.8330   24.9630 C.3       1 LIG        -0.1200 
     28 C26        11.2760   -6.7360   26.4720 C.3       1 LIG        -0.1200 
     29 C27        10.0350   -6.4500   27.4320 C.2       1 LIG        -0.1150 
     30 C28        10.6970   -6.0380   28.6690 C.2       1 LIG        -0.0970 
     31 C30        10.4820   -3.3100   29.5890 C.3       1 LIG        -0.1800 
     32 C29        16.5700  -10.9650   19.4130 C.3       1 LIG        -0.1800 
     33 N4          7.6460   -4.7930   33.3160 N.2       1 LIG        -0.6724 
     34 N3         21.3930  -11.0450   19.9050 N.pl3     1 LIG        -0.7254 
     35 H1          9.6191   -8.3107   29.1435 H         1 LIG         0.1150 
     36 H2          8.4594  -10.0870   30.2972 H         1 LIG         0.1150 
     37 H3          7.1877   -9.5843   32.3689 H         1 LIG         0.1150 
     38 H4          7.1041   -7.2591   33.3076 H         1 LIG         0.1150 
     39 H81         9.6996   -3.6067   32.2194 H         1 LIG         0.0600 
     40 H82         8.3182   -3.3392   31.2530 H         1 LIG         0.0600 
     41 H9         10.6472   -4.6859   30.9019 H         1 LIG         0.0600 
     42 H12        17.9111   -9.5878   19.7571 H         1 LIG         0.0600 
     43 H13        19.1547  -11.3620   18.8219 H         1 LIG         0.1150 
     44 H15        22.3244  -10.0896   22.1191 H         1 LIG         0.1150 
     45 H16        22.1550   -8.9658   24.2709 H         1 LIG         0.1150 
     46 H17        19.9943   -8.2716   25.1230 H         1 LIG         0.1150 
     47 H18        17.9400   -8.6889   23.9539 H         1 LIG         0.1150 
     48 H191       16.3956   -9.9844   23.0402 H         1 LIG         0.0600 
     49 H192       15.6455  -10.3429   21.5683 H         1 LIG         0.0600 
     50 H201       15.3888   -8.0444   20.9453 H         1 LIG         0.0600 
     51 H202       16.8301   -7.5588   21.8254 H         1 LIG         0.0600 
     52 H211       15.0816   -6.8532   23.2738 H         1 LIG         0.0600 
     53 H212       15.6697   -8.2944   24.0564 H         1 LIG         0.0600 
     54 H221       13.8598   -9.6018   22.9363 H         1 LIG         0.0600 
     55 H222       13.3320   -8.1723   22.0732 H         1 LIG         0.0600 
     56 H231       13.6115   -7.7414   25.0844 H         1 LIG         0.0600 
     57 H232       12.4746   -8.9790   24.6388 H         1 LIG         0.0600 
     58 H241       11.3884   -7.3235   22.9552 H         1 LIG         0.0600 
     59 H242       12.3528   -6.0846   23.7034 H         1 LIG         0.0600 
     60 H251       10.0210   -7.6610   24.8978 H         1 LIG         0.0600 
     61 H252       10.1697   -5.9310   24.7130 H         1 LIG         0.0600 
     62 H261       12.0277   -5.9478   26.5456 H         1 LIG         0.0600 
     63 H262       11.7441   -7.6759   26.7669 H         1 LIG         0.0600 
     64 H27         8.9913   -6.5859   27.2006 H         1 LIG         0.1150 
     65 H28        11.7569   -5.9298   28.8474 H         1 LIG         0.1150 
     66 H301        9.9763   -3.0868   28.6492 H         1 LIG         0.0600 
     67 H302       10.5041   -2.3880   30.1707 H         1 LIG         0.0600 
     68 H303       11.5175   -3.5636   29.3570 H         1 LIG         0.0600 
     69 H291       16.8272  -11.1609   18.3714 H         1 LIG         0.0600 
     70 H292       16.1173  -11.8729   19.8119 H         1 LIG         0.0600 
     71 H293       15.8080  -10.1859   19.4032 H         1 LIG         0.0600 
     72 HN4         7.6811   -3.8114   33.5504 H         1 LIG         0.2827 
     73 H31        21.3722  -11.3354   18.9383 H         1 LIG         0.3537 
     74 H32        22.2982  -10.7572   20.2465 H         1 LIG         0.3537 
@<TRIPOS>BOND
     1    1    2 ar   
     2    1    5 ar   
     3    1   35 1    
     4    2    3 ar   
     5    2   36 1    
     6    3    4 ar   
     7    3   37 1    
     8    4    6 ar   
     9    4   38 1    
    10    5    6 ar   
    11    5   10 1    
    12    6    7 1    
    13    7    8 1    
    14    7   33 2    
    15    8    9 1    
    16    8   39 1    
    17    8   40 1    
    18    9   10 1    
    19    9   31 1    
    20    9   41 1    
    21   10   30 1    
    22   11   12 ar   
    23   11   16 1    
    24   11   17 ar   
    25   12   13 1    
    26   12   20 ar   
    27   13   14 1    
    28   13   21 1    
    29   14   15 1    
    30   14   32 1    
    31   14   42 1    
    32   15   16 2    
    33   15   43 1    
    34   16   34 1    
    35   17   18 ar   
    36   17   44 1    
    37   18   19 ar   
    38   18   45 1    
    39   19   20 ar   
    40   19   46 1    
    41   20   47 1    
    42   21   22 1    
    43   21   48 1    
    44   21   49 1    
    45   22   23 1    
    46   22   50 1    
    47   22   51 1    
    48   23   24 1    
    49   23   52 1    
    50   23   53 1    
    51   24   25 1    
    52   24   54 1    
    53   24   55 1    
    54   25   26 1    
    55   25   56 1    
    56   25   57 1    
    57   26   27 1    
    58   26   58 1    
    59   26   59 1    
    60   27   28 1    
    61   27   60 1    
    62   27   61 1    
    63   28   29 1    
    64   28   62 1    
    65   28   63 1    
    66   29   30 2    
    67   29   64 1    
    68   30   65 1    
    69   31   66 1    
    70   31   67 1    
    71   31   68 1    
    72   32   69 1    
    73   32   70 1    
    74   32   71 1    
    75   33   72 1    
    76   34   73 1    
    77   34   74 1    
@<TRIPOS>SUBSTRUCTURE
     1 LIG         1 GROUP             0       ****    0 ROOT    
