@<TRIPOS>MOLECULE
:4jxs_ligand
31   32    1
SMALL
USER_CHARGES


@<TRIPOS>ATOM
      1 C4         81.4410    4.3400   33.3640 C.ar      1 LIG        -0.1150 
      2 C6         82.1210    4.0510   34.5500 C.ar      1 LIG        -0.1150 
      3 C8         83.5060    4.2480   34.6170 C.ar      1 LIG        -0.1150 
      4 C9         84.3080    3.9220   35.8790 C.2       1 LIG         0.7150 
      5 O10        85.3430    3.2860   35.6680 O.co2     1 LIG        -0.8000 
      6 O11        83.9250    4.2480   37.0190 O.co2     1 LIG        -0.8000 
      7 C7         84.2010    4.7380   33.5060 C.ar      1 LIG        -0.1150 
      8 C5         83.5320    5.0290   32.3160 C.ar      1 LIG        -0.1150 
      9 C3         82.1450    4.8300   32.2520 C.ar      1 LIG        -0.1150 
     10 C2         81.4240    5.1590   30.9390 C.3       1 LIG         0.2105 
     11 N1         80.1520    4.3990   30.8310 N.pl3     1 LIG        -0.6527 
     12 S13        78.9000    5.4490   30.6160 S.o2      1 LIG         0.9819 
     13 O16        77.5920    4.7150   30.6840 O.2       1 LIG        -0.4680 
     14 O17        78.9900    6.4970   31.6990 O.2       1 LIG        -0.4680 
     15 C15        79.0990    6.2350   29.0700 C.2       1 LIG         0.0548 
     16 C19        79.1530    7.5770   28.9860 C.2       1 LIG        -0.0738 
     17 C22        79.3120    8.0790   27.7540 C.2       1 LIG        -0.3255 
     18 S20        79.3810    6.7720   26.6680 S.3       1 LIG         0.0328 
     19 C18        79.2230    5.5900   27.8420 C.2       1 LIG        -0.1787 
     20 C21        79.2240    4.1120   27.4840 C.2       1 LIG         0.7150 
     21 O24        78.9770    3.2680   28.3610 O.co2     1 LIG        -0.8000 
     22 O23        79.4630    3.8550   26.2790 O.co2     1 LIG        -0.8000 
     23 H4         80.3698    4.2037   33.3377 H         1 LIG         0.1150 
     24 H6         81.5561    3.7327   35.4111 H         1 LIG         0.1150 
     25 H7         85.2697    4.8900   33.5574 H         1 LIG         0.1150 
     26 H5         84.0785    5.4025   31.4625 H         1 LIG         0.1150 
     27 H21        82.0596    4.8689   30.1014 H         1 LIG         0.0733 
     28 H22        81.2949    6.2392   30.8663 H         1 LIG         0.0733 
     29 HN1        80.1746    3.6955   30.0875 H         1 LIG         0.3572 
     30 H19        79.0664    8.2041   29.8583 H         1 LIG         0.1211 
     31 H22        79.4141    9.0959   27.4079 H         1 LIG         0.2618 
@<TRIPOS>BOND
     1    1    2 ar   
     2    1    9 ar   
     3    1   23 1    
     4    2    3 ar   
     5    2   24 1    
     6    3    4 1    
     7    3    7 ar   
     8    4    5 2    
     9    4    6 1    
    10    7    8 ar   
    11    7   25 1    
    12    8    9 ar   
    13    8   26 1    
    14    9   10 1    
    15   10   11 1    
    16   10   27 1    
    17   10   28 1    
    18   11   12 1    
    19   11   29 1    
    20   12   13 2    
    21   12   14 2    
    22   12   15 1    
    23   15   16 1    
    24   15   19 2    
    25   16   17 2    
    26   16   30 1    
    27   17   18 1    
    28   17   31 1    
    29   18   19 1    
    30   19   20 1    
    31   20   21 2    
    32   20   22 1    
@<TRIPOS>SUBSTRUCTURE
     1 LIG         1 GROUP             0       ****    0 ROOT    
