@<TRIPOS>MOLECULE
:1w4o_ligand
32   33    1
SMALL
USER_CHARGES


@<TRIPOS>ATOM
      1 N1         36.5030   -2.0840   11.7110 N.pl3     1 LIG        -0.6000 
      2 C2         35.2100   -2.1570   11.1150 C.ar      1 LIG         0.5000 
      3 O2         34.7380   -1.2530   10.5240 O.2       1 LIG        -0.4000 
      4 N3         34.5840   -3.3970   11.3050 N.pl3     1 LIG        -0.5100 
      5 C4         35.0790   -4.5240   11.9990 C.ar      1 LIG         0.4500 
      6 O4         34.3810   -5.5120   12.0540 O.2       1 LIG        -0.4200 
      7 C5         36.4010   -4.3530   12.5790 C.ar      1 LIG        -0.0700 
      8 C6         37.0560   -3.1880   12.4290 C.ar      1 LIG         0.0800 
      9 O5         40.7770    0.3360   13.9640 O.3       1 LIG        -0.6830 
     10 C5         40.2230    0.5960   12.5170 C.3       1 LIG         0.1450 
     11 C4         38.9370    0.3200   12.2850 C.3       1 LIG         0.1700 
     12 O4         38.7340   -0.9590   11.6930 O.3       1 LIG        -0.4000 
     13 C3         38.0330    1.1710   12.8790 C.3       1 LIG         0.1400 
     14 O3         37.3130    2.4500   12.4140 O.3       1 LIG        -0.7600 
     15 C2         36.8820   -0.1270   13.0650 C.3       1 LIG         0.2050 
     16 O2         37.0630   -0.8150   14.5460 O.3       1 LIG        -0.6830 
     17 C1         37.1810   -0.8620   11.5770 C.3       1 LIG         0.5100 
     18 O3P        35.1240    3.1800   13.3130 O.co2     1 LIG        -1.1200 
     19 P          36.6740    3.5710   13.1930 P.3       1 LIG         1.9199 
     20 O1P        36.9060    4.8640   12.4680 O.co2     1 LIG        -1.1200 
     21 O2P        37.2690    3.6140   14.5750 O.co2     1 LIG        -1.1200 
     22 HN3        33.6807   -3.5158   10.8560 H         1 LIG         0.3600 
     23 H5         36.8537   -5.1641   13.1300 H         1 LIG         0.1000 
     24 H6         38.0343   -3.0905   12.8771 H         1 LIG         0.1000 
     25 HO5        40.6147   -0.5680   14.1890 H         1 LIG         0.4180 
     26 H51        40.8604    0.0411   11.8254 H         1 LIG         0.0600 
     27 H52        40.4373    1.6493   12.3137 H         1 LIG         0.0600 
     28 H4         38.8750    0.8155   11.3149 H         1 LIG         0.0300 
     29 H3         38.3774    1.4122   13.8861 H         1 LIG         0.0600 
     30 H2         35.8760    0.2894   13.0256 H         1 LIG         0.0600 
     31 HO2        36.2330   -1.2040   14.7845 H         1 LIG         0.4180 
     32 H1         36.8837   -0.3026   10.6862 H         1 LIG         0.1000 
@<TRIPOS>BOND
     1    1    2 ar   
     2    1    8 ar   
     3    1   17 1    
     4    2    3 2    
     5    2    4 ar   
     6    4    5 ar   
     7    4   22 1    
     8    5    6 2    
     9    5    7 ar   
    10    7    8 ar   
    11    7   23 1    
    12    8   24 1    
    13    9   10 1    
    14    9   25 1    
    15   10   11 1    
    16   10   26 1    
    17   10   27 1    
    18   11   12 1    
    19   11   13 1    
    20   11   28 1    
    21   12   17 1    
    22   13   14 1    
    23   13   15 1    
    24   13   29 1    
    25   14   19 1    
    26   15   16 1    
    27   15   17 1    
    28   15   30 1    
    29   16   31 1    
    30   17   32 1    
    31   18   19 2    
    32   19   20 1    
    33   19   21 1    
@<TRIPOS>SUBSTRUCTURE
     1 LIG         1 GROUP             0       ****    0 ROOT    
