@<TRIPOS>MOLECULE
:2zy1_ligand
43   44    1
SMALL
USER_CHARGES


@<TRIPOS>ATOM
      1 CAJ        13.0250   57.9300   36.9900 C.ar      1 LIG        -0.1150 
      2 CAF        11.9720   58.6310   36.4120 C.ar      1 LIG        -0.1150 
      3 CAE        11.5460   59.8370   36.9550 C.ar      1 LIG        -0.1150 
      4 CAG        12.1690   60.3470   38.0910 C.ar      1 LIG        -0.1150 
      5 CAK        13.2170   59.6440   38.6680 C.ar      1 LIG        -0.1150 
      6 CAV        13.6540   58.4400   38.1200 C.ar      1 LIG         0.0850 
      7 OAS        14.7730   57.8650   38.6400 O.3       1 LIG        -0.1700 
      8 CAW        15.1870   56.7080   38.0480 C.ar      1 LIG         0.0850 
      9 CAM        16.0440   56.7590   36.9540 C.ar      1 LIG        -0.1150 
     10 CAL        14.8530   55.4800   38.6050 C.ar      1 LIG        -0.1150 
     11 CAH        15.3850   54.3100   38.0680 C.ar      1 LIG        -0.1150 
     12 CAI        16.2450   54.3650   36.9770 C.ar      1 LIG        -0.1150 
     13 CAU        16.5800   55.5930   36.4190 C.ar      1 LIG        -0.1150 
     14 CAP        17.5640   55.6720   35.2490 C.3       1 LIG        -0.0050 
     15 CAN        18.9900   56.0180   35.6930 C.3       1 LIG        -0.1200 
     16 CAO        19.6100   54.9210   36.5620 C.3       1 LIG         0.0800 
     17 NAR        19.3850   53.6280   35.8970 N.am      1 LIG        -0.5000 
     18 CAT        19.3900   52.4720   36.5520 C.2       1 LIG         0.5000 
     19 OAA        19.5620   52.3680   37.7680 O.2       1 LIG        -0.5000 
     20 CAQ        19.0890   51.2510   35.6820 C.3       1 LIG        -0.4300 
     21 PAX        20.5540   50.2720   35.2740 P.3       1 LIG         1.5225 
     22 OAC        21.2780   51.0530   34.0650 O.co2     1 LIG        -0.9700 
     23 OAD        21.4880   50.3020   36.5840 O.3       1 LIG        -0.6925 
     24 OAB        20.1230   48.9070   34.8850 O.co2     1 LIG        -0.9700 
     25 HAJ        13.3204   57.0111   36.5053 H         1 LIG         0.1150 
     26 HAF        11.4978   58.2458   35.5224 H         1 LIG         0.1150 
     27 HAE        10.7348   60.3794   36.4912 H         1 LIG         0.1150 
     28 HAG        11.8472   61.2878   38.5129 H         1 LIG         0.1150 
     29 HAK        13.7288   60.0525   39.5260 H         1 LIG         0.1150 
     30 HAM        16.3257   57.7144   36.5409 H         1 LIG         0.1150 
     31 HAL        14.2047   55.4350   39.4676 H         1 LIG         0.1150 
     32 HAH        15.1355   53.3535   38.5032 H         1 LIG         0.1150 
     33 HAI        16.6470   53.4490   36.5697 H         1 LIG         0.1150 
     34 HAP1       17.2126   56.4454   34.5665 H         1 LIG         0.0600 
     35 HAP2       17.4909   54.7520   34.6830 H         1 LIG         0.0600 
     36 HAN1       19.0053   56.9692   36.2258 H         1 LIG         0.0600 
     37 HAN2       19.6169   56.1571   34.8159 H         1 LIG         0.0600 
     38 HAO1       19.1552   54.9303   37.5537 H         1 LIG         0.0600 
     39 HAO2       20.6794   55.0843   36.6921 H         1 LIG         0.0600 
     40 HNAR       19.2158   53.6232   34.8975 H         1 LIG         0.3000 
     41 HAQ1       18.5633   51.5388   34.7730 H         1 LIG         0.0800 
     42 HAQ2       18.3827   50.6285   36.2282 H         1 LIG         0.0800 
     43 HOAD       22.3610   50.0765   36.3014 H         1 LIG         0.3800 
@<TRIPOS>BOND
     1    1    2 ar   
     2    1    6 ar   
     3    1   25 1    
     4    2    3 ar   
     5    2   26 1    
     6    3    4 ar   
     7    3   27 1    
     8    4    5 ar   
     9    4   28 1    
    10    5    6 ar   
    11    5   29 1    
    12    6    7 1    
    13    7    8 1    
    14    8    9 ar   
    15    8   10 ar   
    16    9   13 ar   
    17    9   30 1    
    18   10   11 ar   
    19   10   31 1    
    20   11   12 ar   
    21   11   32 1    
    22   12   13 ar   
    23   12   33 1    
    24   13   14 1    
    25   14   15 1    
    26   14   34 1    
    27   14   35 1    
    28   15   16 1    
    29   15   36 1    
    30   15   37 1    
    31   16   17 1    
    32   16   38 1    
    33   16   39 1    
    34   17   18 am   BACKBONE|DICT|INTERRES
    35   17   40 1    
    36   18   19 2    
    37   18   20 1    
    38   20   21 1    
    39   20   41 1    
    40   20   42 1    
    41   21   22 2    
    42   21   23 1    
    43   21   24 1    
    44   23   43 1    
@<TRIPOS>SUBSTRUCTURE
     1 LIG         1 GROUP             0       ****    0 ROOT    
