@<TRIPOS>MOLECULE
:2ymd_ligand
26   27    1
SMALL
USER_CHARGES


@<TRIPOS>ATOM
      1 OH         13.3780   10.1350   11.2250 O.3       1 LIG        -0.5850 
      2 CZ3        13.4310    9.8820    9.8610 C.ar      1 LIG         0.0767 
      3 CH2        14.4460   10.4260    9.0570 C.ar      1 LIG        -0.0888 
      4 CZ2        14.4950   10.1570    7.6890 C.ar      1 LIG        -0.3541 
      5 CE2        13.5050    9.3390    7.0960 C.ar      1 LIG         0.2860 
      6 NE1        13.3170    8.9130    5.7900 N.pl3     1 LIG        -0.4786 
      7 CD1        12.2180    8.1310    5.7330 C.ar      1 LIG        -0.1072 
      8 CG         11.6900    8.0390    7.0200 C.ar      1 LIG        -0.1749 
      9 CD2        12.5130    8.8020    7.8810 C.ar      1 LIG         0.1233 
     10 CE3        12.4670    9.0660    9.2710 C.ar      1 LIG        -0.2243 
     11 CB         10.4800    7.2870    7.4570 C.3       1 LIG        -0.0641 
     12 CA         10.4300    5.8300    7.1780 C.3       1 LIG         0.1900 
     13 NZ         11.4690    5.0270    7.7460 N.4       1 LIG        -0.3000 
     14 HOH        14.1987   10.4663   11.5717 H         1 LIG         0.4350 
     15 HH2        15.2058   11.0392    9.5175 H         1 LIG         0.1359 
     16 HZ2        15.2902   10.5462    7.0757 H         1 LIG         0.1796 
     17 HNE1       13.9123    9.0946    4.9917 H         1 LIG         0.3577 
     18 HD1        11.8890    7.6900    4.8031 H         1 LIG         0.1929 
     19 HE3        11.7585    8.5539    9.8940 H         1 LIG         0.1699 
     20 HB1         9.6062    7.7462    6.9930 H         1 LIG         0.0600 
     21 HB2        10.3216    7.4250    8.5267 H         1 LIG         0.0600 
     22 HA1        10.4486    5.6720    6.0992 H         1 LIG         0.0600 
     23 HA2         9.4829    5.4250    7.5308 H         1 LIG         0.0600 
     24 HZ1        11.4261    4.0810    7.3873 H         1 LIG         0.3300 
     25 HZ2        12.3740    5.4207    7.5121 H         1 LIG         0.3300 
     26 HZ3        11.3751    5.0101    8.7518 H         1 LIG         0.3300 
@<TRIPOS>BOND
     1    1    2 1    
     2    1   14 1    
     3    2    3 ar   
     4    2   10 ar   
     5    3    4 ar   
     6    3   15 1    
     7    4    5 ar   
     8    4   16 1    
     9    5    6 ar   
    10    5    9 ar   
    11    6    7 ar   
    12    6   17 1    
    13    7    8 ar   
    14    7   18 1    
    15    8    9 ar   
    16    8   11 1    
    17    9   10 ar   
    18   10   19 1    
    19   11   12 1    
    20   11   20 1    
    21   11   21 1    
    22   12   13 1    
    23   12   22 1    
    24   12   23 1    
    25   13   24 1    
    26   13   25 1    
    27   13   26 1    
@<TRIPOS>SUBSTRUCTURE
     1 LIG         1 GROUP             0       ****    0 ROOT    
