@<TRIPOS>MOLECULE
:3ao4_ligand
27   29    1
SMALL
USER_CHARGES


@<TRIPOS>ATOM
      1 C1         -0.6520   11.6500   -6.5400 C.ar      1 LIG        -0.1150 
      2 C2         -0.8490   10.4700   -5.7750 C.ar      1 LIG        -0.0454 
      3 C3         -1.5910   10.5010   -4.5500 C.ar      1 LIG        -0.1150 
      4 C4         -2.1620   11.6710   -4.0350 C.ar      1 LIG        -0.1150 
      5 C5         -1.9850   12.8300   -4.7640 C.ar      1 LIG         0.0850 
      6 C6         -1.2370   12.8160   -6.0400 C.ar      1 LIG         0.0850 
      7 O7         -1.2350   14.1090   -6.5130 O.3       1 LIG        -0.2850 
      8 C8         -2.0680   14.9240   -5.6440 C.3       1 LIG         0.2000 
      9 O9         -2.3960   14.1190   -4.5040 O.3       1 LIG        -0.2850 
     10 C10        -0.2840    9.1620   -6.2260 C.ar      1 LIG         0.3834 
     11 C11        -0.0680    8.0430   -5.4000 C.ar      1 LIG        -0.3200 
     12 C12         0.4600    7.0540   -6.2300 C.ar      1 LIG         0.3710 
     13 N13         0.5620    7.4950   -7.4820 N.pl3     1 LIG         0.0695 
     14 N14         0.1080    8.8360   -7.5070 N.2       1 LIG        -0.5310 
     15 N15         0.8210    5.7850   -5.8370 N.pl3     1 LIG        -0.9200 
     16 C16         1.0560    6.9050   -8.7640 C.3       1 LIG        -0.0575 
     17 H1         -0.0911   11.6507   -7.4630 H         1 LIG         0.1150 
     18 H3         -1.7335    9.5926   -3.9864 H         1 LIG         0.1150 
     19 H4         -2.7102   11.6698   -3.1043 H         1 LIG         0.1150 
     20 H81        -2.9850   15.1730   -6.1767 H         1 LIG         0.1000 
     21 H82        -1.5392   15.8301   -5.3716 H         1 LIG         0.1000 
     22 H11        -0.2861    7.9370   -4.3484 H         1 LIG         0.1500 
     23 H151        1.1637    5.0816   -6.4835 H         1 LIG         0.3600 
     24 H152        0.6859    5.4365   -4.8995 H         1 LIG         0.3600 
     25 H161        1.0372    7.6488   -9.5609 H         1 LIG         0.0600 
     26 H162        2.0784    6.5504   -8.6297 H         1 LIG         0.0600 
     27 H163        0.4236    6.0623   -9.0438 H         1 LIG         0.0600 
@<TRIPOS>BOND
     1    1    2 ar   
     2    1    6 ar   
     3    1   17 1    
     4    2    3 ar   
     5    2   10 1    
     6    3    4 ar   
     7    3   18 1    
     8    4    5 ar   
     9    4   19 1    
    10    5    6 ar   
    11    5    9 1    
    12    6    7 1    
    13    7    8 1    
    14    8    9 1    
    15    8   20 1    
    16    8   21 1    
    17   10   11 ar   
    18   10   14 ar   
    19   11   12 ar   
    20   11   22 1    
    21   12   13 ar   
    22   12   15 1    
    23   13   14 ar   
    24   13   16 1    
    25   15   23 1    
    26   15   24 1    
    27   16   25 1    
    28   16   26 1    
    29   16   27 1    
@<TRIPOS>SUBSTRUCTURE
     1 LIG         1 GROUP             0       ****    0 ROOT    
