@<TRIPOS>MOLECULE
:1z9g_ligand
30   30    1
SMALL
USER_CHARGES


@<TRIPOS>ATOM
      1 SG         35.9650   42.6870   -6.7510 S.3       1 LIG        -0.9000 
      2 CB2        35.1540   42.3440   -5.1990 C.3       1 LIG        -0.3000 
      3 CA1        36.2330   42.3660   -4.1280 C.3       1 LIG         0.1400 
      4 CB1        35.5510   42.6630   -2.8070 C.3       1 LIG        -0.0050 
      5 CG         36.5110   42.8770   -1.6820 C.ar      1 LIG        -0.1150 
      6 CD1        37.2780   44.0460   -1.7000 C.ar      1 LIG        -0.1150 
      7 CD2        36.6020   41.9870   -0.6120 C.ar      1 LIG        -0.1150 
      8 CE1        38.1670   44.3670   -0.6830 C.ar      1 LIG        -0.1150 
      9 CE2        37.5240   42.2670    0.3960 C.ar      1 LIG        -0.1150 
     10 CZ         38.2790   43.4440    0.3570 C.ar      1 LIG        -0.1150 
     11 C1         38.2270   40.9690   -3.6580 C.2       1 LIG         0.5000 
     12 O1         39.0170   41.9410   -3.6710 O.2       1 LIG        -0.5000 
     13 N          36.9280   41.1070   -3.9110 N.am      1 LIG        -0.5000 
     14 CA2        38.7180   39.4920   -3.4200 C.3       1 LIG        -0.2200 
     15 C2         38.6840   38.6030   -4.6890 C.2       1 LIG         0.7000 
     16 O2         37.6450   38.5360   -5.4730 O.co2     1 LIG        -0.8000 
     17 O3         39.7280   37.9510   -4.9200 O.co2     1 LIG        -0.8000 
     18 HB21       34.6720   41.3690   -5.2585 H         1 LIG         0.1000 
     19 HB22       34.3848   43.0888   -5.1069 H         1 LIG         0.1000 
     20 HA1        36.9389   43.1698   -4.3476 H         1 LIG         0.0600 
     21 HB11       34.6725   42.0772   -2.5418 H         1 LIG         0.0600 
     22 HB12       35.3692   43.7035   -2.8707 H         1 LIG         0.0600 
     23 HD1        37.1930   44.7443   -2.5198 H         1 LIG         0.1150 
     24 HD2        35.9990   41.0909   -0.5805 H         1 LIG         0.1150 
     25 HE1        38.7360   45.2824   -0.7081 H         1 LIG         0.1150 
     26 HE2        37.6325   41.5855    1.2266 H         1 LIG         0.1150 
     27 HZ         38.9680   43.6475    1.1631 H         1 LIG         0.1150 
     28 HN         36.3564   40.2722   -3.9172 H         1 LIG         0.3000 
     29 HA21       38.0974   39.0300   -2.6516 H         1 LIG         0.0600 
     30 HA22       39.7354   39.5193   -3.0299 H         1 LIG         0.0600 
@<TRIPOS>BOND
     1    1    2 1    
     2    2    3 1    
     3    2   18 1    
     4    2   19 1    
     5    3    4 1    
     6    3   13 1    
     7    3   20 1    
     8    4    5 1    
     9    4   21 1    
    10    4   22 1    
    11    5    6 ar   
    12    5    7 ar   
    13    6    8 ar   
    14    6   23 1    
    15    7    9 ar   
    16    7   24 1    
    17    8   10 ar   
    18    8   25 1    
    19    9   10 ar   
    20    9   26 1    
    21   10   27 1    
    22   11   12 2    
    23   11   13 am   BACKBONE|DICT|INTERRES
    24   11   14 1    
    25   13   28 1    
    26   14   15 1    
    27   14   29 1    
    28   14   30 1    
    29   15   16 2    
    30   15   17 1    
@<TRIPOS>SUBSTRUCTURE
     1 LIG         1 GROUP             0       ****    0 ROOT    
