@<TRIPOS>MOLECULE
:3twp_ligand
15   15    1
SMALL
USER_CHARGES


@<TRIPOS>ATOM
      1 C1'        71.0910   80.9060   28.3540 C.2       1 LIG         0.7150 
      2 O1'        71.8730   81.8540   28.6790 O.co2     1 LIG        -0.8000 
      3 O2'        70.8030   79.8640   28.9870 O.co2     1 LIG        -0.8000 
      4 C1         70.4560   80.9640   27.0070 C.ar      1 LIG        -0.1150 
      5 C2         70.7860   82.0490   26.2110 C.ar      1 LIG         0.1500 
      6 C3         70.2040   82.1230   24.9600 C.ar      1 LIG        -0.1150 
      7 C4         69.3330   81.1000   24.5460 C.ar      1 LIG        -0.1150 
      8 C5         69.0080   80.0110   25.3690 C.ar      1 LIG        -0.1150 
      9 C6         69.5790   79.9380   26.6300 C.ar      1 LIG        -0.1150 
     10 O2         71.6710   83.0130   26.6960 O.3       1 LIG        -0.5850 
     11 H3         70.4344   82.9439   24.2973 H         1 LIG         0.1150 
     12 H4         68.9403   81.1473   23.5434 H         1 LIG         0.1150 
     13 H5         68.3371   79.2384   25.0239 H         1 LIG         0.1150 
     14 H6         69.3377   79.1001   27.2685 H         1 LIG         0.1150 
     15 HO2        71.9376   82.7348   27.5755 H         1 LIG         0.4350 
@<TRIPOS>BOND
     1    1    2 2    
     2    1    3 1    
     3    1    4 1    
     4    4    5 ar   
     5    4    9 ar   
     6    5    6 ar   
     7    5   10 1    
     8    6    7 ar   
     9    6   11 1    
    10    7    8 ar   
    11    7   12 1    
    12    8    9 ar   
    13    8   13 1    
    14    9   14 1    
    15   10   15 1    
@<TRIPOS>SUBSTRUCTURE
     1 LIG         1 GROUP             0       ****    0 ROOT    
