@<TRIPOS>MOLECULE
:2vkm_ligand
90   93    1
SMALL
USER_CHARGES


@<TRIPOS>ATOM
      1 C11         4.4130   -5.1950   33.1000 C.ar      1 LIG        -0.1150 
      2 C12         5.2420   -4.3600   33.8900 C.ar      1 LIG        -0.1150 
      3 C13         4.6980   -3.6390   34.9800 C.ar      1 LIG        -0.1150 
      4 C14         3.3210   -3.7450   35.2880 C.ar      1 LIG        -0.1150 
      5 C15         2.4880   -4.5800   34.4980 C.ar      1 LIG        -0.1150 
      6 C16         3.0360   -5.3160   33.3940 C.ar      1 LIG        -0.1150 
      7 C17         2.1700   -6.2270   32.5070 C.3       1 LIG         0.2550 
      8 C18         1.4620   -7.3670   33.2600 C.3       1 LIG        -0.1800 
      9 N21         1.1280   -5.4320   31.8290 N.am      1 LIG        -0.5000 
     10 C21         1.1560   -5.1180   30.5150 C.2       1 LIG         0.6150 
     11 O21         2.0810   -5.4990   29.7990 O.2       1 LIG        -0.5000 
     12 C23         0.0270   -4.2640   29.9990 C.ar      1 LIG        -0.1150 
     13 C24         0.2420   -3.3430   28.9160 C.ar      1 LIG        -0.1150 
     14 C25        -0.8230   -2.4980   28.4210 C.ar      1 LIG         0.1750 
     15 C26        -2.0970   -2.6130   29.0440 C.ar      1 LIG        -0.1150 
     16 C27        -2.3290   -3.5250   30.1210 C.ar      1 LIG        -0.1150 
     17 C28        -1.2590   -4.3250   30.5690 C.ar      1 LIG        -0.1150 
     18 N22        -0.5840   -1.5810   27.2910 N.pl3     1 LIG        -0.4705 
     19 C29        -1.6780   -0.6210   26.9260 C.3       1 LIG         0.0222 
     20 S2          0.9570   -0.7190   27.2970 S.o2      1 LIG         0.9349 
     21 O23         0.7760    0.7120   26.7080 O.2       1 LIG        -0.4680 
     22 O24         1.5840   -0.5900   28.7420 O.2       1 LIG        -0.4680 
     23 C20         2.0880   -1.5630   26.1760 C.3       1 LIG        -0.5305 
     24 C22        -3.6830   -3.6040   30.7330 C.2       1 LIG         0.6150 
     25 O22        -4.7010   -3.6160   30.0040 O.2       1 LIG        -0.5000 
     26 N3         -3.7510   -3.6810   32.1040 N.am      1 LIG        -0.5000 
     27 C31        -4.9460   -4.1490   32.8940 C.3       1 LIG         0.1400 
     28 C32        -4.5810   -5.5030   33.6110 C.3       1 LIG        -0.0050 
     29 C33        -3.7670   -6.5940   32.8930 C.ar      1 LIG        -0.1150 
     30 C34        -4.0520   -6.9600   31.5490 C.ar      1 LIG        -0.1150 
     31 C35        -3.2910   -7.9850   30.9120 C.ar      1 LIG        -0.1150 
     32 C36        -2.2570   -8.6380   31.6160 C.ar      1 LIG        -0.1150 
     33 C37        -1.9610   -8.2760   32.9660 C.ar      1 LIG        -0.1150 
     34 C38        -2.7170   -7.2550   33.5990 C.ar      1 LIG        -0.1150 
     35 C39        -5.3790   -3.1870   34.0450 C.3       1 LIG         0.2050 
     36 O3         -6.6810   -3.4440   34.5290 O.3       1 LIG        -0.6830 
     37 C30        -5.3090   -1.6890   33.7640 C.3       1 LIG         0.1700 
     38 N4         -6.0570   -1.1290   32.6360 N.4       1 LIG        -0.2000 
     39 C41        -7.2500   -0.2620   32.9220 C.3       1 LIG         0.2850 
     40 C42        -8.5120   -0.9240   32.3680 C.ar      1 LIG        -0.1150 
     41 C43        -9.2790   -1.7510   33.2130 C.ar      1 LIG        -0.1150 
     42 C44       -10.4180   -2.4190   32.7410 C.ar      1 LIG         0.0850 
     43 C45       -10.7990   -2.2530   31.3800 C.ar      1 LIG        -0.1150 
     44 C46       -10.0480   -1.4260   30.5150 C.ar      1 LIG        -0.1150 
     45 C47        -8.8930   -0.7570   31.0100 C.ar      1 LIG        -0.1150 
     46 O4        -11.2120   -3.2590   33.5010 O.3       1 LIG        -0.2850 
     47 C48       -11.9020   -2.8360   34.6880 C.3       1 LIG         0.1100 
     48 H11         4.8422   -5.7306   32.2664 H         1 LIG         0.1150 
     49 H12         6.2934   -4.2732   33.6592 H         1 LIG         0.1150 
     50 H13         5.3409   -3.0136   35.5785 H         1 LIG         0.1150 
     51 H14         2.9130   -3.1919   36.1190 H         1 LIG         0.1150 
     52 H15         1.4384   -4.6634   34.7360 H         1 LIG         0.1150 
     53 H17         2.8275   -6.7083   31.7813 H         1 LIG         0.0600 
     54 H181        0.9287   -8.0170   32.5672 H         1 LIG         0.0600 
     55 H182        2.1605   -7.9809   33.8143 H         1 LIG         0.0600 
     56 H183        0.7369   -6.9799   33.9768 H         1 LIG         0.0600 
     57 HN21        0.3668   -5.0807   32.3939 H         1 LIG         0.3000 
     58 H24         1.2210   -3.2949   28.4649 H         1 LIG         0.1150 
     59 H26        -2.9276   -2.0192   28.7037 H         1 LIG         0.1150 
     60 H28        -1.4475   -5.0330   31.3633 H         1 LIG         0.1150 
     61 H291       -1.4526   -0.0851   26.0047 H         1 LIG         0.0733 
     62 H292       -2.6067   -1.1558   26.7382 H         1 LIG         0.0733 
     63 H293       -1.8315    0.0902   27.7331 H         1 LIG         0.0733 
     64 H201        3.0287   -1.0195   26.1230 H         1 LIG         0.1950 
     65 H202        2.2779   -2.5728   26.5371 H         1 LIG         0.1950 
     66 H203        1.6406   -1.6151   25.1840 H         1 LIG         0.1950 
     67 HN3        -2.8758   -3.6258   32.6091 H         1 LIG         0.3000 
     68 H31        -5.7794   -4.2984   32.2175 H         1 LIG         0.0600 
     69 H321       -5.4984   -5.9710   33.9676 H         1 LIG         0.0600 
     70 H322       -4.0103   -5.2819   34.5128 H         1 LIG         0.0600 
     71 H34        -4.8474   -6.4663   31.0133 H         1 LIG         0.1150 
     72 H35        -3.4986   -8.2801   29.8958 H         1 LIG         0.1150 
     73 H36        -1.6838   -9.4178   31.1408 H         1 LIG         0.1150 
     74 H37        -1.1721   -8.7744   33.5070 H         1 LIG         0.1150 
     75 H38        -2.5226   -6.9569   34.6081 H         1 LIG         0.1150 
     76 H39        -4.6698   -3.3002   34.8516 H         1 LIG         0.0600 
     77 HO3        -6.5806   -4.0113   35.2862 H         1 LIG         0.4180 
     78 H301       -4.2521   -1.6186   33.5298 H         1 LIG         0.0600 
     79 H302       -5.6242   -1.1508   34.6207 H         1 LIG         0.0600 
     80 H41        -6.3264   -1.8763   32.0134 H         1 LIG         0.3100 
     81 H42        -5.3974   -0.5348   32.1540 H         1 LIG         0.3100 
     82 H411       -7.1011    0.6696   32.3753 H         1 LIG         0.0600 
     83 H412       -7.3346    0.0435   33.9571 H         1 LIG         0.0600 
     84 H43        -8.9844   -1.9653   34.2166 H         1 LIG         0.1150 
     85 H45       -11.6693   -2.7689   31.0015 H         1 LIG         0.1150 
     86 H46       -10.3420   -1.3111   29.4820 H         1 LIG         0.1150 
     87 H47        -8.3096   -0.1318   30.3505 H         1 LIG         0.1150 
     88 H481      -12.8280   -3.3990   34.7725 H         1 LIG         0.0300 
     89 H482      -11.2969   -2.9969   35.5743 H         1 LIG         0.0300 
     90 H483      -12.1529   -1.7770   34.6289 H         1 LIG         0.0300 
@<TRIPOS>BOND
     1    1    2 ar   
     2    1    6 ar   
     3    1   48 1    
     4    2    3 ar   
     5    2   49 1    
     6    3    4 ar   
     7    3   50 1    
     8    4    5 ar   
     9    4   51 1    
    10    5    6 ar   
    11    5   52 1    
    12    6    7 1    
    13    7    8 1    
    14    7    9 1    
    15    7   53 1    
    16    8   54 1    
    17    8   55 1    
    18    8   56 1    
    19    9   10 am   BACKBONE|DICT|INTERRES
    20    9   57 1    
    21   10   11 2    
    22   10   12 1    
    23   12   13 ar   
    24   12   17 ar   
    25   13   14 ar   
    26   13   58 1    
    27   14   15 ar   
    28   14   18 1    
    29   15   16 ar   
    30   15   59 1    
    31   16   17 ar   
    32   16   24 1    
    33   17   60 1    
    34   18   19 1    
    35   18   20 1    
    36   19   61 1    
    37   19   62 1    
    38   19   63 1    
    39   20   21 2    
    40   20   22 2    
    41   20   23 1    
    42   23   64 1    
    43   23   65 1    
    44   23   66 1    
    45   24   25 2    
    46   24   26 am   BACKBONE|DICT|INTERRES
    47   26   27 1    
    48   26   67 1    
    49   27   28 1    
    50   27   35 1    
    51   27   68 1    
    52   28   29 1    
    53   28   69 1    
    54   28   70 1    
    55   29   30 ar   
    56   29   34 ar   
    57   30   31 ar   
    58   30   71 1    
    59   31   32 ar   
    60   31   72 1    
    61   32   33 ar   
    62   32   73 1    
    63   33   34 ar   
    64   33   74 1    
    65   34   75 1    
    66   35   36 1    
    67   35   37 1    
    68   35   76 1    
    69   36   77 1    
    70   37   38 1    
    71   37   78 1    
    72   37   79 1    
    73   38   39 1    
    74   38   80 1    
    75   38   81 1    
    76   39   40 1    
    77   39   82 1    
    78   39   83 1    
    79   40   41 ar   
    80   40   45 ar   
    81   41   42 ar   
    82   41   84 1    
    83   42   43 ar   
    84   42   46 1    
    85   43   44 ar   
    86   43   85 1    
    87   44   45 ar   
    88   44   86 1    
    89   45   87 1    
    90   46   47 1    
    91   47   88 1    
    92   47   89 1    
    93   47   90 1    
@<TRIPOS>SUBSTRUCTURE
     1 LIG         1 GROUP             0       ****    0 ROOT    
