@<TRIPOS>MOLECULE
:4lzs_ligand
31   31    1
SMALL
USER_CHARGES


@<TRIPOS>ATOM
      1 C4         12.6820   38.5720   77.4760 C.ar      1 LIG        -0.1460 
      2 C3         11.7030   37.6910   77.0090 C.ar      1 LIG        -0.1460 
      3 C7         10.4630   38.1280   77.7220 C.ar      1 LIG        -0.1230 
      4 C5         12.0390   39.4910   78.4520 C.ar      1 LIG        -0.1630 
      5 C27        14.1440   38.6210   77.1330 C.2       1 LIG         0.5850 
      6 C8          9.1280   37.4740   77.5610 C.2       1 LIG         0.6150 
      7 C26        12.6800   40.6100   79.2290 C.3       1 LIG        -0.0250 
      8 C29        14.8290   37.3540   76.6940 C.3       1 LIG        -0.1800 
      9 C1         12.0780   37.1810   74.6180 C.3       1 LIG        -0.1800 
     10 C2         11.8370   36.5820   75.9930 C.3       1 LIG        -0.0050 
     11 N6         10.7390   39.1630   78.5340 N.pl3     1 LIG        -0.2390 
     12 N10         8.3330   37.4690   78.6420 N.am      1 LIG        -0.5000 
     13 O28        14.7850   39.6480   77.2540 O.2       1 LIG        -0.4700 
     14 O9          8.7840   36.9810   76.4910 O.2       1 LIG        -0.5000 
     15 C6          6.9750   36.9200   78.6330 C.3       1 LIG         0.0200 
     16 H261       11.9657   41.0793   79.9062 H         1 LIG         0.0600 
     17 H262       13.5168   40.2434   79.8231 H         1 LIG         0.0600 
     18 H263       13.0584   41.3764   78.5535 H         1 LIG         0.0600 
     19 H291       15.9026   37.4401   76.8581 H         1 LIG         0.0600 
     20 H292       14.4752   36.5158   77.2911 H         1 LIG         0.0600 
     21 H293       14.6704   37.1460   75.6379 H         1 LIG         0.0600 
     22 H11        12.2240   36.3955   73.8766 H         1 LIG         0.0600 
     23 H12        11.2179   37.7728   74.3027 H         1 LIG         0.0600 
     24 H13        12.9461   37.8364   74.5799 H         1 LIG         0.0600 
     25 H21        10.9557   35.9481   75.9754 H         1 LIG         0.0600 
     26 H22        12.6538   35.9297   76.2740 H         1 LIG         0.0600 
     27 HN6        10.0643   39.6263   79.1304 H         1 LIG         0.3170 
     28 HN10        8.6706   37.8870   79.4971 H         1 LIG         0.3000 
     29 H61         6.6006   36.8505   79.6542 H         1 LIG         0.0600 
     30 H62         6.3008   37.5635   78.0741 H         1 LIG         0.0600 
     31 H63         6.9515   35.9206   78.1962 H         1 LIG         0.0600 
@<TRIPOS>BOND
     1    1    2 ar   
     2    1    4 ar   
     3    1    5 1    
     4    2    3 ar   
     5    2   10 1    
     6    3    6 1    
     7    3   11 ar   
     8    4    7 1    
     9    4   11 ar   
    10    5    8 1    
    11    5   13 2    
    12    6   12 am   BACKBONE|DICT|INTERRES
    13    6   14 2    
    14    7   16 1    
    15    7   17 1    
    16    7   18 1    
    17    8   19 1    
    18    8   20 1    
    19    8   21 1    
    20    9   10 1    
    21    9   22 1    
    22    9   23 1    
    23    9   24 1    
    24   10   25 1    
    25   10   26 1    
    26   11   27 1    
    27   12   15 1    
    28   12   28 1    
    29   15   29 1    
    30   15   30 1    
    31   15   31 1    
@<TRIPOS>SUBSTRUCTURE
     1 LIG         1 GROUP             0       ****    0 ROOT    
