@<TRIPOS>MOLECULE
:2xj7_ligand
35   36    1
SMALL
USER_CHARGES


@<TRIPOS>ATOM
      1 O1          0.3980  -32.4170   32.3570 O.2       1 LIG        -0.5000 
      2 C8          1.5920  -32.5180   32.0060 C.2       1 LIG         0.5000 
      3 C10         1.9700  -33.2280   30.7040 C.3       1 LIG        -0.1800 
      4 N2          2.6280  -31.9320   32.7010 N.am      1 LIG        -0.5000 
      5 C2          2.5620  -31.1990   33.9910 C.3       1 LIG         0.1400 
      6 C3          2.2750  -32.2870   35.0610 C.3       1 LIG         0.2050 
      7 O4          3.4980  -32.7140   35.6260 O.3       1 LIG        -0.6830 
      8 C4          1.3750  -31.7170   36.1530 C.3       1 LIG         0.2050 
      9 O2          1.1720  -32.6840   37.1610 O.3       1 LIG        -0.6830 
     10 C1          1.4970  -30.0730   34.0910 C.3       1 LIG         0.1500 
     11 N1          0.1340  -30.5980   34.2970 N.4       1 LIG        -0.1000 
     12 C5         -0.0010  -31.4410   35.5100 C.3       1 LIG         0.2100 
     13 C9         -0.9490  -29.5930   34.2840 C.3       1 LIG         0.1500 
     14 C7         -1.8890  -29.9530   35.4500 C.3       1 LIG        -0.1200 
     15 C6         -0.9680  -30.6780   36.4390 C.3       1 LIG         0.2050 
     16 O3         -0.2490  -29.7020   37.2140 O.3       1 LIG        -0.6830 
     17 H101        2.8584  -33.8427   30.8460 H         1 LIG         0.0600 
     18 H102        1.1593  -33.8683   30.3589 H         1 LIG         0.0600 
     19 H103        2.1843  -32.4979   29.9252 H         1 LIG         0.0600 
     20 HN2         3.5650  -32.0701   32.3332 H         1 LIG         0.3000 
     21 H2          3.5525  -30.7864   34.1602 H         1 LIG         0.0600 
     22 H3          1.7859  -33.1696   34.6470 H         1 LIG         0.0600 
     23 HO4         3.3164  -33.4074   36.2485 H         1 LIG         0.4180 
     24 H4          1.8460  -30.8492   36.6125 H         1 LIG         0.0600 
     25 HO2         1.0294  -32.2476   37.9946 H         1 LIG         0.4180 
     26 H11         1.5256  -29.4650   33.2101 H         1 LIG         0.0600 
     27 H12         1.7416  -29.3889   34.9051 H         1 LIG         0.0600 
     28 HN1        -0.0261  -31.2215   33.5140 H         1 LIG         0.2900 
     29 H5         -0.4607  -32.3755   35.2012 H         1 LIG         0.0600 
     30 H91        -1.4498  -29.7161   33.3319 H         1 LIG         0.0600 
     31 H92        -0.5619  -28.5772   34.3780 H         1 LIG         0.0600 
     32 H71        -2.6592  -30.6420   35.1032 H         1 LIG         0.0600 
     33 H72        -2.3876  -29.0842   35.8811 H         1 LIG         0.0600 
     34 H6         -1.5164  -31.3405   37.1102 H         1 LIG         0.0600 
     35 HO3        -0.2535  -29.9664   38.1322 H         1 LIG         0.4180 
@<TRIPOS>BOND
     1    1    2 2    
     2    2    3 1    
     3    2    4 am   BACKBONE|DICT|INTERRES
     4    3   17 1    
     5    3   18 1    
     6    3   19 1    
     7    4    5 1    
     8    4   20 1    
     9    5    6 1    
    10    5   10 1    
    11    5   21 1    
    12    6    7 1    
    13    6    8 1    
    14    6   22 1    
    15    7   23 1    
    16    8    9 1    
    17    8   12 1    
    18    8   24 1    
    19    9   25 1    
    20   10   11 1    
    21   10   26 1    
    22   10   27 1    
    23   11   12 1    
    24   11   13 1    
    25   11   28 1    
    26   12   15 1    
    27   12   29 1    
    28   13   14 1    
    29   13   30 1    
    30   13   31 1    
    31   14   15 1    
    32   14   32 1    
    33   14   33 1    
    34   15   16 1    
    35   15   34 1    
    36   16   35 1    
@<TRIPOS>SUBSTRUCTURE
     1 LIG         1 GROUP             0       ****    0 ROOT    
