@<TRIPOS>MOLECULE
:3jya_ligand
20   22    1
SMALL
USER_CHARGES


@<TRIPOS>ATOM
      1 C1          9.0290   81.3600   -1.2340 C.ar      1 LIG         0.6150 
      2 N1          9.9220   81.3140   -0.2000 N.pl3     1 LIG        -0.4225 
      3 O1          9.2720   81.1030   -2.4030 O.2       1 LIG        -0.5000 
      4 S1          6.4060   81.9310   -1.7400 S.3       1 LIG        -0.0683 
      5 CL1         3.3440   82.6020   -2.0740 Cl        1 LIG        -0.1800 
      6 C2          9.6000   81.6150    1.1010 C.ar      1 LIG         0.4234 
      7 N2          8.4500   81.9850    1.5720 N.2       1 LIG        -0.3898 
      8 CL2         6.3490   82.8480    3.4260 Cl        1 LIG        -0.1800 
      9 C3          7.4770   82.0590    0.5700 C.ar      1 LIG        -0.2117 
     10 C4          7.7730   81.7580   -0.7340 C.ar      1 LIG        -0.0413 
     11 C5          5.4250   82.3980   -0.4130 C.ar      1 LIG        -0.0677 
     12 C6          4.0920   82.7020   -0.5170 C.ar      1 LIG         0.2321 
     13 C7          3.4340   83.0620    0.6360 C.ar      1 LIG        -0.2617 
     14 C8          4.1070   83.1130    1.8410 C.ar      1 LIG        -0.0101 
     15 C9          5.4450   82.8000    1.9380 C.ar      1 LIG        -0.0560 
     16 C10         6.1260   82.4310    0.7890 C.ar      1 LIG         0.4742 
     17 HN1        10.8675   81.0294   -0.4052 H         1 LIG         0.3000 
     18 H2         10.4505   81.4689    1.7630 H         1 LIG         0.0581 
     19 H7          2.3833   83.3097    0.5984 H         1 LIG         0.1618 
     20 H8          3.5690   83.3997    2.7329 H         1 LIG         0.1245 
@<TRIPOS>BOND
     1    1    2 ar   
     2    1    3 2    
     3    1   10 ar   
     4    2    6 ar   
     5    2   17 1    
     6    4   10 1    
     7    4   11 1    
     8    5   12 1    
     9    6    7 ar   
    10    6   18 1    
    11    7    9 ar   
    12    8   15 1    
    13    9   10 ar   
    14    9   16 1    
    15   11   12 ar   
    16   11   16 ar   
    17   12   13 ar   
    18   13   14 ar   
    19   13   19 1    
    20   14   15 ar   
    21   14   20 1    
    22   15   16 ar   
@<TRIPOS>SUBSTRUCTURE
     1 LIG         1 GROUP             0       ****    0 ROOT    
