@<TRIPOS>MOLECULE
:4cig_ligand
67   70    1
SMALL
USER_CHARGES


@<TRIPOS>ATOM
      1 C1         36.6590  -33.8290   -6.2730 C.ar      1 LIG         0.0000 
      2 C2         36.8790  -34.9860   -5.5530 C.ar      1 LIG         0.0000 
      3 C3         36.6590  -32.6050   -5.6380 C.ar      1 LIG        -0.1150 
      4 C4         37.0980  -34.9230   -4.1940 C.ar      1 LIG        -0.1150 
      5 C5         33.9890  -32.4940    0.9220 C.ar      1 LIG        -0.1150 
      6 C6         33.4150  -29.7590   -2.3130 C.ar      1 LIG        -0.1150 
      7 C7         35.1190  -28.7710   -0.9720 C.ar      1 LIG        -0.1150 
      8 C8         33.0620  -32.7640    1.9050 C.ar      1 LIG        -0.1150 
      9 C9         32.5720  -29.8210   -1.2240 C.ar      1 LIG        -0.1150 
     10 C10        34.2840  -28.8300    0.1220 C.ar      1 LIG        -0.1150 
     11 C11        36.8800  -32.5570   -4.2780 C.ar      1 LIG        -0.1150 
     12 C12        33.0940  -34.2490   -0.4490 C.ar      1 LIG        -0.1150 
     13 C13        34.6870  -29.2380   -2.1940 C.ar      1 LIG        -0.1150 
     14 C14        37.0980  -33.7070   -3.5450 C.ar      1 LIG        -0.1150 
     15 C15        34.0080  -33.2240   -0.2520 C.ar      1 LIG        -0.1150 
     16 C16        32.1500  -33.7790    1.7200 C.ar      1 LIG        -0.1150 
     17 C17        32.1700  -34.5120    0.5490 C.ar      1 LIG         0.0850 
     18 C18        33.0140  -29.3500   -0.0050 C.ar      1 LIG         0.0850 
     19 C19        36.8780  -31.2420   -3.6220 C.2       1 LIG         0.6150 
     20 C20        33.0800  -35.0450   -1.7120 C.2       1 LIG         0.7150 
     21 C21        36.4350  -35.1140   -8.2680 C.ar      1 LIG        -0.1150 
     22 C22        30.5230  -35.7860    1.5390 C.3       1 LIG         0.1100 
     23 C24        30.8900  -29.7210    0.8280 C.3       1 LIG         0.1100 
     24 C25        35.6010  -29.1640   -3.3720 C.3       1 LIG         0.1950 
     25 C26        37.3390  -33.6610   -2.0730 C.3       1 LIG         0.2650 
     26 C27        35.0490  -32.8860   -1.2680 C.3       1 LIG         0.2650 
     27 C28        36.6140  -34.2840    0.1410 C.3       1 LIG         0.0900 
     28 C29        36.6560  -36.2700   -7.5530 C.ar      1 LIG        -0.1150 
     29 N1         35.8160  -30.4540   -3.9770 N.am      1 LIG        -0.5000 
     30 N2         36.1410  -33.9220   -1.2260 N.4       1 LIG        -0.1000 
     31 O1         31.9340  -35.3670   -2.1390 O.co2     1 LIG        -0.8000 
     32 O3         37.7690  -30.9420   -2.8380 O.2       1 LIG        -0.5000 
     33 C40        36.4390  -33.8930   -7.6310 C.ar      1 LIG        -0.1150 
     34 O4         34.1640  -35.3060   -2.3120 O.co2     1 LIG        -0.8000 
     35 C50        36.8800  -36.2060   -6.1950 C.ar      1 LIG        -0.1150 
     36 O6         31.2670  -35.5440    0.3500 O.3       1 LIG        -0.2850 
     37 O8         32.2350  -29.3790    1.1440 O.3       1 LIG        -0.2850 
     38 H3         36.4970  -31.7025   -6.2115 H         1 LIG         0.1150 
     39 H4         37.2616  -35.8338   -3.6349 H         1 LIG         0.1150 
     40 H5         34.6985  -31.6963    1.0778 H         1 LIG         0.1150 
     41 H6         33.0665  -30.1262   -3.2667 H         1 LIG         0.1150 
     42 H7         36.1155  -28.3707   -0.8613 H         1 LIG         0.1150 
     43 H8         33.0496  -32.1814    2.8135 H         1 LIG         0.1150 
     44 H9         31.6001  -30.2477   -1.4068 H         1 LIG         0.1150 
     45 H10        34.6245  -28.4680    1.0803 H         1 LIG         0.1150 
     46 H16        31.4773  -33.9015    2.5521 H         1 LIG         0.1150 
     47 H21        36.2632  -35.1623   -9.3333 H         1 LIG         0.1150 
     48 H221       29.9206  -36.6692    1.3417 H         1 LIG         0.0300 
     49 H222       31.1362  -36.0479    2.4043 H         1 LIG         0.0300 
     50 H223       29.8089  -34.9929    1.7680 H         1 LIG         0.0300 
     51 H241       30.2936  -29.5971    1.7292 H         1 LIG         0.0300 
     52 H242       30.4456  -29.0551    0.0870 H         1 LIG         0.0300 
     53 H243       30.7802  -30.7670    0.5362 H         1 LIG         0.0300 
     54 H251       36.5446  -28.6802   -3.1118 H         1 LIG         0.0600 
     55 H252       35.1348  -28.5217   -4.1199 H         1 LIG         0.0600 
     56 H261       37.9269  -32.8482   -1.6650 H         1 LIG         0.0600 
     57 H262       38.0210  -34.4972   -1.9109 H         1 LIG         0.0600 
     58 H271       35.4851  -31.9128   -1.0389 H         1 LIG         0.0600 
     59 H272       34.6174  -32.7922   -2.2654 H         1 LIG         0.0600 
     60 H281       35.8157  -34.7283    0.7326 H         1 LIG         0.0600 
     61 H282       37.4073  -35.0316    0.1140 H         1 LIG         0.0600 
     62 H283       36.9904  -33.4076    0.6703 H         1 LIG         0.0600 
     63 H29        36.6575  -37.2257   -8.0562 H         1 LIG         0.1150 
     64 HN1        35.1293  -30.7897   -4.6428 H         1 LIG         0.3000 
     65 HN2        35.6993  -34.7540   -1.6057 H         1 LIG         0.2900 
     66 H40        36.2906  -32.9878   -8.1914 H         1 LIG         0.1150 
     67 H50        37.0720  -37.1185   -5.6505 H         1 LIG         0.1150 
@<TRIPOS>BOND
     1    1    2 ar   
     2    1    3 ar   
     3    1   33 ar   
     4    2    4 ar   
     5    2   35 ar   
     6    3   11 ar   
     7    3   38 1    
     8    4   14 ar   
     9    4   39 1    
    10    5    8 ar   
    11    5   15 ar   
    12    5   40 1    
    13    6    9 ar   
    14    6   13 ar   
    15    6   41 1    
    16    7   10 ar   
    17    7   13 ar   
    18    7   42 1    
    19    8   16 ar   
    20    8   43 1    
    21    9   18 ar   
    22    9   44 1    
    23   10   18 ar   
    24   10   45 1    
    25   11   14 ar   
    26   11   19 1    
    27   12   15 ar   
    28   12   17 ar   
    29   12   20 1    
    30   13   24 1    
    31   14   25 1    
    32   15   26 1    
    33   16   17 ar   
    34   16   46 1    
    35   17   36 1    
    36   18   37 1    
    37   19   29 am   BACKBONE|DICT|INTERRES
    38   19   32 2    
    39   20   31 2    
    40   20   34 1    
    41   21   28 ar   
    42   21   33 ar   
    43   21   47 1    
    44   22   36 1    
    45   22   48 1    
    46   22   49 1    
    47   22   50 1    
    48   23   37 1    
    49   23   51 1    
    50   23   52 1    
    51   23   53 1    
    52   24   29 1    
    53   24   54 1    
    54   24   55 1    
    55   25   30 1    
    56   25   56 1    
    57   25   57 1    
    58   26   30 1    
    59   26   58 1    
    60   26   59 1    
    61   27   30 1    
    62   27   60 1    
    63   27   61 1    
    64   27   62 1    
    65   28   35 ar   
    66   28   63 1    
    67   29   64 1    
    68   30   65 1    
    69   33   66 1    
    70   35   67 1    
@<TRIPOS>SUBSTRUCTURE
     1 LIG         1 GROUP             0       ****    0 ROOT    
