@<TRIPOS>MOLECULE
:1p1n_ligand
29   29    1
SMALL
USER_CHARGES


@<TRIPOS>ATOM
      1 N          13.6940    3.0170   16.1000 N.4       1 LIG         0.1350 
      2 CD         14.6330    4.1480   15.7670 C.3       1 LIG         0.0025 
      3 CD1        17.0860    5.0280   14.4380 C.2       1 LIG        -0.2300 
      4 CD2        18.5830    3.5700   15.6900 C.3       1 LIG        -0.1800 
      5 CA         14.4440    1.8130   16.2830 C.3       1 LIG         0.0625 
      6 CB         15.8080    1.9430   15.6100 C.3       1 LIG        -0.0600 
      7 CB1        15.7940    1.7100   14.0950 C.3       1 LIG        -0.2200 
      8 CG         15.9940    3.3470   15.7600 C.3       1 LIG        -0.0600 
      9 CG1        15.8430    0.2610   13.6720 C.2       1 LIG         0.7000 
     10 CG2        17.2680    4.0640   15.2500 C.2       1 LIG         0.0000 
     11 C          14.6040    1.4730   17.8000 C.2       1 LIG         0.4450 
     12 O          13.9600    2.2010   18.5850 O.co2     1 LIG        -0.7225 
     13 OD1        15.6720    0.0330   12.4540 O.co2     1 LIG        -0.8000 
     14 OD2        16.0610   -0.5940   14.5540 O.co2     1 LIG        -0.8000 
     15 OXT        15.3410    0.5050   18.0830 O.co2     1 LIG        -0.7225 
     16 H1         13.0559    2.8832   15.3217 H         1 LIG         0.3100 
     17 H2         13.1769    3.2132   16.9466 H         1 LIG         0.3100 
     18 HD1        14.5909    4.9591   16.4801 H         1 LIG         0.0600 
     19 HD2        14.3431    4.5027   14.7862 H         1 LIG         0.0600 
     20 HD11       16.1266    5.3781   14.1115 H         1 LIG         0.1150 
     21 HD12       17.9368    5.5599   14.0341 H         1 LIG         0.1150 
     22 HD21       18.6401    3.5155   16.7754 H         1 LIG         0.0600 
     23 HD22       18.7433    2.5633   15.3047 H         1 LIG         0.0600 
     24 HD23       19.3948    4.2053   15.3337 H         1 LIG         0.0600 
     25 HA         13.8950    0.9837   15.8460 H         1 LIG         0.0600 
     26 HB         16.6201    1.3859   16.0805 H         1 LIG         0.0600 
     27 HB11       16.6701    2.1533   13.6215 H         1 LIG         0.0600 
     28 HB12       14.9313    2.1859   13.6287 H         1 LIG         0.0600 
     29 HG         16.2478    3.4218   16.8207 H         1 LIG         0.0600 
@<TRIPOS>BOND
     1    1    2 1    
     2    1    5 1    
     3    1   16 1    
     4    1   17 1    
     5    2    8 1    
     6    2   18 1    
     7    2   19 1    
     8    3   10 2    
     9    3   20 1    
    10    3   21 1    
    11    4   10 1    
    12    4   22 1    
    13    4   23 1    
    14    4   24 1    
    15    5    6 1    
    16    5   11 1    
    17    5   25 1    
    18    6    7 1    
    19    6    8 1    
    20    6   26 1    
    21    7    9 1    
    22    7   27 1    
    23    7   28 1    
    24    8   10 1    
    25    8   29 1    
    26    9   13 2    
    27    9   14 1    
    28   11   12 2    
    29   11   15 1    
@<TRIPOS>SUBSTRUCTURE
     1 LIG         1 GROUP             0       ****    0 ROOT    
