@<TRIPOS>MOLECULE
:1bcu_ligand
28   30    1
SMALL
USER_CHARGES


@<TRIPOS>ATOM
      1 C1          8.9820   23.1820   49.5160 C.ar      1 LIG        -0.1150 
      2 C2          9.6700   23.6490   48.4750 C.ar      1 LIG        -0.1150 
      3 C3         10.6650   22.8510   47.7940 C.ar      1 LIG         0.1800 
      4 C4         10.9020   21.5730   48.2640 C.ar      1 LIG        -0.1150 
      5 C5          9.9390   17.8640   51.1430 C.ar      1 LIG        -0.1150 
      6 C6          9.2310   17.2530   52.1630 C.ar      1 LIG         0.1800 
      7 C7          8.2220   18.0300   52.8520 C.ar      1 LIG        -0.1150 
      8 C8          7.9680   19.2990   52.5280 C.ar      1 LIG        -0.1150 
      9 C9          8.4750   21.2720   51.0580 C.ar      1 LIG         0.1596 
     10 N10        10.3850   19.7760   49.7680 N.pl3     1 LIG        -0.2445 
     11 C11        10.1960   21.0700   49.3360 C.ar      1 LIG         0.3767 
     12 C12         8.6900   19.9650   51.4640 C.ar      1 LIG        -0.0972 
     13 C13         9.1900   21.8460   50.0200 C.ar      1 LIG        -0.0972 
     14 C14         9.6910   19.1730   50.7930 C.ar      1 LIG         0.3767 
     15 N15        11.2740   23.3260   46.6840 N.pl3     1 LIG        -0.9000 
     16 N16         9.4530   15.9620   52.5020 N.pl3     1 LIG        -0.9000 
     17 H1          8.2329   23.8127   49.9717 H         1 LIG         0.1150 
     18 H2          9.4470   24.6381   48.1047 H         1 LIG         0.1150 
     19 H4         11.6333   20.9538   47.7634 H         1 LIG         0.1150 
     20 H5         10.6946   17.3047   50.6092 H         1 LIG         0.1150 
     21 H7          7.6589   17.5739   53.6539 H         1 LIG         0.1150 
     22 H8          7.2054   19.8369   53.0724 H         1 LIG         0.1150 
     23 H9          7.7177   21.8577   51.5591 H         1 LIG         0.1576 
     24 HN10       11.0825   19.2176   49.2743 H         1 LIG         0.3681 
     25 H151       12.1229   22.8860   46.3441 H         1 LIG         0.3600 
     26 H152       11.2055   24.3097   46.4678 H         1 LIG         0.3600 
     27 H161        9.1206   15.6394   53.4007 H         1 LIG         0.3600 
     28 H162       10.2910   15.5054   52.1720 H         1 LIG         0.3600 
@<TRIPOS>BOND
     1    1   13 ar   
     2    1    2 ar   
     3    1   17 1    
     4    2    3 ar   
     5    2   18 1    
     6    3   15 1    
     7    3    4 ar   
     8    4   11 ar   
     9    4   19 1    
    10    5   14 ar   
    11    5    6 ar   
    12    5   20 1    
    13    6   16 1    
    14    6    7 ar   
    15    7    8 ar   
    16    7   21 1    
    17    8   12 ar   
    18    8   22 1    
    19    9   13 ar   
    20    9   12 ar   
    21    9   23 1    
    22   10   11 ar   
    23   10   14 ar   
    24   10   24 1    
    25   11   13 ar   
    26   12   14 ar   
    27   15   25 1    
    28   15   26 1    
    29   16   27 1    
    30   16   28 1    
@<TRIPOS>SUBSTRUCTURE
     1 LIG         1 GROUP             0       ****    0 ROOT    
