@<TRIPOS>MOLECULE
:3uuo_ligand
45   48    1
SMALL
USER_CHARGES


@<TRIPOS>ATOM
      1 C11         4.7290   12.1460   42.0020 C.ar      1 LIG        -0.1150 
      2 C20         3.7580   13.4990   40.2660 C.ar      1 LIG        -0.1150 
      3 C8          4.3570   13.0430   43.0150 C.ar      1 LIG        -0.2190 
      4 C9          4.3170   13.6790   45.3130 C.ar      1 LIG        -0.3424 
      5 C15         3.3490   14.4580   41.2160 C.ar      1 LIG        -0.1596 
      6 C10         3.6530   14.2420   42.6160 C.ar      1 LIG         0.4566 
      7 C7          4.7290   12.7540   44.3800 C.ar      1 LIG         0.4920 
      8 C16         4.4720   12.3560   40.6430 C.ar      1 LIG         0.0850 
      9 C13         4.2780   13.8290   46.6690 C.ar      1 LIG         0.2230 
     10 C12         3.5340   14.8900   44.8590 C.ar      1 LIG         0.5364 
     11 C2          4.8480   10.3810   45.0180 C.3       1 LIG         0.0900 
     12 C6          6.9720   11.7400   44.4610 C.3       1 LIG         0.0900 
     13 C3          5.7470    9.4220   45.7880 C.3       1 LIG         0.1700 
     14 C5          7.7690   10.6990   45.2110 C.3       1 LIG         0.1700 
     15 C23         2.6140   15.6670   40.7110 C.3       1 LIG        -0.0650 
     16 C19         4.8900   13.0050   47.7300 C.3       1 LIG        -0.0650 
     17 C22         5.8550   10.5670   39.7870 C.3       1 LIG         0.1100 
     18 N18         3.7000   14.9670   47.0320 N.2       1 LIG        -0.5310 
     19 N17         3.2210   15.6290   45.9140 N.pl3     1 LIG        -0.1490 
     20 N14         3.2520   15.1200   43.5930 N.ar      1 LIG        -0.6780 
     21 N1          5.5080   11.6270   44.7030 N.pl3     1 LIG        -0.6200 
     22 N4          7.0730    9.3900   45.0940 N.4       1 LIG        -0.2000 
     23 O21         4.8170   11.5230   39.6120 O.3       1 LIG        -0.2850 
     24 H11         5.2481   11.2371   42.2566 H         1 LIG         0.1150 
     25 H20         3.5405   13.6571   39.2193 H         1 LIG         0.1150 
     26 H21         3.9516   10.5855   45.5994 H         1 LIG         0.0600 
     27 H22         4.5215    9.9166   44.0869 H         1 LIG         0.0600 
     28 H61         7.1473   11.5935   43.3982 H         1 LIG         0.0600 
     29 H62         7.3243   12.7404   44.7100 H         1 LIG         0.0600 
     30 H31         5.3148    8.4219   45.8102 H         1 LIG         0.0600 
     31 H32         5.8756    9.7471   46.8215 H         1 LIG         0.0600 
     32 H51         7.8646   10.9716   46.2634 H         1 LIG         0.0600 
     33 H52         8.7781   10.6253   44.8046 H         1 LIG         0.0600 
     34 H231        1.8747   16.0090   41.4344 H         1 LIG         0.0600 
     35 H232        3.3156   16.4780   40.5238 H         1 LIG         0.0600 
     36 H233        2.0857   15.4510   39.7818 H         1 LIG         0.0600 
     37 H191        4.7928   13.4633   48.7149 H         1 LIG         0.0600 
     38 H192        4.4213   12.0229   47.7783 H         1 LIG         0.0600 
     39 H193        5.9534   12.8544   47.5421 H         1 LIG         0.0600 
     40 H221        6.1015   10.1153   38.8262 H         1 LIG         0.0300 
     41 H222        6.7588   11.0338   40.1812 H         1 LIG         0.0300 
     42 H223        5.5431    9.7698   40.4626 H         1 LIG         0.0300 
     43 HN17        2.7195   16.5069   45.9640 H         1 LIG         0.3410 
     44 H41         6.9354    9.1675   44.1185 H         1 LIG         0.3100 
     45 H42         7.6442    8.6757   45.5215 H         1 LIG         0.3100 
@<TRIPOS>BOND
     1    1    3 ar   
     2    1    8 ar   
     3    1   24 1    
     4    2    5 ar   
     5    2    8 ar   
     6    2   25 1    
     7    3    6 ar   
     8    3    7 ar   
     9    4    7 ar   
    10    4    9 ar   
    11    4   10 ar   
    12    5    6 ar   
    13    5   15 1    
    14    6   20 ar   
    15    7   21 1    
    16    8   23 1    
    17    9   16 1    
    18    9   18 ar   
    19   10   19 ar   
    20   10   20 ar   
    21   11   13 1    
    22   11   21 1    
    23   11   26 1    
    24   11   27 1    
    25   12   14 1    
    26   12   21 1    
    27   12   28 1    
    28   12   29 1    
    29   13   22 1    
    30   13   30 1    
    31   13   31 1    
    32   14   22 1    
    33   14   32 1    
    34   14   33 1    
    35   15   34 1    
    36   15   35 1    
    37   15   36 1    
    38   16   37 1    
    39   16   38 1    
    40   16   39 1    
    41   17   23 1    
    42   17   40 1    
    43   17   41 1    
    44   17   42 1    
    45   18   19 ar   
    46   19   43 1    
    47   22   44 1    
    48   22   45 1    
@<TRIPOS>SUBSTRUCTURE
     1 LIG         1 GROUP             0       ****    0 ROOT    
