@<TRIPOS>MOLECULE
:1ps3_ligand
28   29    1
SMALL
USER_CHARGES


@<TRIPOS>ATOM
      1 C4         31.4730   66.7250    6.8040 C.3       1 LIG         0.2050 
      2 O4         31.7420   67.6100    5.7130 O.3       1 LIG        -0.6830 
      3 C3         32.6900   66.7920    7.8050 C.3       1 LIG         0.2050 
      4 O3         33.8510   66.3060    7.1450 O.3       1 LIG        -0.5750 
      5 C2         32.5080   66.1550    9.2240 C.3       1 LIG         0.2050 
      6 O2         33.2470   65.3230    9.6780 O.3       1 LIG        -0.5750 
      7 C1         30.9360   65.5550    9.3520 C.3       1 LIG         0.2100 
      8 N9         30.6120   65.4940   10.7760 N.am      1 LIG        -0.5000 
      9 C8         29.6480   66.3270   11.0980 C.2       1 LIG         0.5000 
     10 O8         29.2090   66.4430   12.2430 O.2       1 LIG        -0.5000 
     11 C7         29.2300   67.0570    9.8380 C.2       1 LIG         0.5000 
     12 O7         28.3440   67.9250    9.7440 O.2       1 LIG        -0.5000 
     13 N          30.0150   66.5810    8.8480 N.am      1 LIG        -0.1400 
     14 C5         30.0950   67.1610    7.4490 C.3       1 LIG         0.0100 
     15 C6         28.9260   66.6580    6.5580 C.3       1 LIG         0.1450 
     16 O6         27.6460   66.9110    7.1600 O.3       1 LIG        -0.6830 
     17 H4         31.3872   65.7054    6.4274 H         1 LIG         0.0600 
     18 HO4        32.6696   67.6034    5.4941 H         1 LIG         0.4180 
     19 H3         32.8934   67.8467    7.9677 H         1 LIG         0.0600 
     20 HO3        33.6542   66.1079    6.2481 H         1 LIG         0.3100 
     21 H2         32.5381   67.0185    9.8973 H         1 LIG         0.0600 
     22 HO2        33.6778   65.5897   10.4714 H         1 LIG         0.3100 
     23 H1         30.7808   64.5971    8.8568 H         1 LIG         0.0600 
     24 HN9        31.1357   64.9408   11.4423 H         1 LIG         0.3000 
     25 H5         30.0433   68.2429    7.5230 H         1 LIG         0.0600 
     26 H61        29.0119   65.5861    6.3784 H         1 LIG         0.0600 
     27 H62        28.9477   67.1429    5.5868 H         1 LIG         0.0600 
     28 HO6        27.6053   67.8323    7.3943 H         1 LIG         0.4180 
@<TRIPOS>BOND
     1    1    2 1    
     2    1    3 1    
     3    1   14 1    
     4    1   17 1    
     5    2   18 1    
     6    3    4 1    
     7    3    5 1    
     8    3   19 1    
     9    4   20 1    
    10    5    6 1    
    11    5    7 1    
    12    5   21 1    
    13    6   22 1    
    14    7    8 1    
    15    7   13 1    
    16    7   23 1    
    17    8    9 am   BACKBONE|DICT|INTERRES
    18    8   24 1    
    19    9   10 2    
    20    9   11 1    
    21   11   12 2    
    22   11   13 am   BACKBONE|DICT|INTERRES
    23   13   14 1    
    24   14   15 1    
    25   14   25 1    
    26   15   16 1    
    27   15   26 1    
    28   15   27 1    
    29   16   28 1    
@<TRIPOS>SUBSTRUCTURE
     1 LIG         1 GROUP             0       ****    0 ROOT    
