@<TRIPOS>MOLECULE
:2zb1_ligand
47   50    1
SMALL
USER_CHARGES


@<TRIPOS>ATOM
      1 O2         45.7200   34.8960   32.5820 O.2       1 LIG        -0.5000 
      2 C17        45.7430   33.7180   32.1950 C.2       1 LIG         0.6150 
      3 N3         46.9130   33.0920   31.9880 N.am      1 LIG        -0.5000 
      4 C18        48.1540   33.8290   32.1750 C.3       1 LIG         0.0800 
      5 C19        49.2800   33.1550   31.4260 C.3       1 LIG        -0.0600 
      6 C21        49.2780   33.6720   29.9930 C.3       1 LIG        -0.1200 
      7 C20        50.2910   34.2050   31.0040 C.3       1 LIG        -0.1200 
      8 C14        44.4420   32.9440   32.0480 C.ar      1 LIG        -0.1150 
      9 C13        44.4170   31.5670   31.7720 C.ar      1 LIG        -0.1150 
     10 C12        43.2070   30.8760   31.6830 C.ar      1 LIG        -0.1150 
     11 C15        43.2340   33.6040   32.2620 C.ar      1 LIG        -0.1150 
     12 C16        42.0360   32.9150   32.1840 C.ar      1 LIG        -0.1150 
     13 C11        42.0000   31.5660   31.8690 C.ar      1 LIG         0.0000 
     14 C9         40.7560   30.9350   31.8330 C.ar      1 LIG         0.0000 
     15 C7         39.7590   31.1380   30.8780 C.ar      1 LIG        -0.1150 
     16 C8         39.9510   32.0670   29.7180 C.3       1 LIG        -0.0650 
     17 C6         38.5430   30.4580   30.9870 C.ar      1 LIG        -0.1150 
     18 C5         38.3010   29.5920   32.0460 C.ar      1 LIG        -0.1150 
     19 C10        40.4930   30.0690   32.8940 C.ar      1 LIG        -0.1150 
     20 C4         39.2910   29.3860   33.0070 C.ar      1 LIG         0.0000 
     21 C3         39.1150   28.5320   34.1010 C.2       1 LIG         0.5614 
     22 N2         40.0380   28.3150   35.0720 N.2       1 LIG        -0.3751 
     23 N1         39.4920   27.4050   35.9820 N.2       1 LIG        -0.3751 
     24 O1         38.0990   27.8400   34.3740 O.3       1 LIG        -0.3726 
     25 C2         38.2920   27.1830   35.4370 C.2       1 LIG         0.4464 
     26 C1         37.1470   26.3110   35.8800 C.3       1 LIG        -0.0650 
     27 HN3        46.9459   32.1227   31.7074 H         1 LIG         0.3000 
     28 H181       48.4032   33.8423   33.2374 H         1 LIG         0.0600 
     29 H182       48.0509   34.8705   31.8640 H         1 LIG         0.0600 
     30 H19        49.6142   32.1542   31.6722 H         1 LIG         0.0600 
     31 H211       48.4827   34.3429   29.6713 H         1 LIG         0.0600 
     32 H212       49.6494   32.9991   29.2229 H         1 LIG         0.0600 
     33 H201       51.3241   33.8815   30.8941 H         1 LIG         0.0600 
     34 H202       50.1654   35.2342   31.3337 H         1 LIG         0.0600 
     35 H13        45.3354   31.0169   31.6335 H         1 LIG         0.1150 
     36 H12        43.1999   29.8155   31.4837 H         1 LIG         0.1150 
     37 H15        43.2185   34.6354   32.5815 H         1 LIG         0.1150 
     38 H16        41.1762   33.2741   32.6703 H         1 LIG         0.1150 
     39 H81        39.0804   32.0935   29.0627 H         1 LIG         0.0600 
     40 H82        40.0971   33.0797   30.0832 H         1 LIG         0.0600 
     41 H83        40.8208   31.7766   29.1288 H         1 LIG         0.0600 
     42 H6         37.7722   30.6021   30.2450 H         1 LIG         0.1150 
     43 H5         37.3746   29.0459   32.0733 H         1 LIG         0.1150 
     44 H10        41.2686   29.9334   33.6351 H         1 LIG         0.1150 
     45 H11        36.8347   25.6859   35.0558 H         1 LIG         0.0600 
     46 H12        37.4607   25.6888   36.7161 H         1 LIG         0.0600 
     47 H13        36.3093   26.9178   36.2144 H         1 LIG         0.0600 
@<TRIPOS>BOND
     1    1    2 2    
     2    2    3 am   BACKBONE|DICT|INTERRES
     3    2    8 1    
     4    3    4 1    
     5    3   27 1    
     6    4    5 1    
     7    4   28 1    
     8    4   29 1    
     9    5    6 1    
    10    5    7 1    
    11    5   30 1    
    12    6    7 1    
    13    6   31 1    
    14    6   32 1    
    15    7   33 1    
    16    7   34 1    
    17    8    9 ar   
    18    8   11 ar   
    19    9   10 ar   
    20    9   35 1    
    21   10   13 ar   
    22   10   36 1    
    23   11   12 ar   
    24   11   37 1    
    25   12   13 ar   
    26   12   38 1    
    27   13   14 1    
    28   14   15 ar   
    29   14   19 ar   
    30   15   16 1    
    31   15   17 ar   
    32   16   39 1    
    33   16   40 1    
    34   16   41 1    
    35   17   18 ar   
    36   17   42 1    
    37   18   20 ar   
    38   18   43 1    
    39   19   20 ar   
    40   19   44 1    
    41   20   21 1    
    42   21   22 2    
    43   21   24 1    
    44   22   23 1    
    45   23   25 2    
    46   24   25 1    
    47   25   26 1    
    48   26   45 1    
    49   26   46 1    
    50   26   47 1    
@<TRIPOS>SUBSTRUCTURE
     1 LIG         1 GROUP             0       ****    0 ROOT    
