@<TRIPOS>MOLECULE
:1p1q_ligand
22   22    1
SMALL
USER_CHARGES


@<TRIPOS>ATOM
      1 N          48.1640   25.1450   42.7800 N.4       1 LIG         0.2475 
      2 CA         47.1230   26.2210   42.7750 C.3       1 LIG         0.0625 
      3 C          46.7770   26.5840   44.2690 C.2       1 LIG         0.4450 
      4 OT1        45.8330   27.3970   44.4690 O.co2     1 LIG        -0.7225 
      5 OT2        47.5140   26.0870   45.1680 O.co2     1 LIG        -0.7225 
      6 CB         45.8720   25.7340   42.0020 C.3       1 LIG        -0.1200 
      7 CG         46.1380   25.4240   40.5560 C.2       1 LIG        -0.0567 
      8 CD1        46.0410   26.2930   39.4350 C.2       1 LIG         0.6792 
      9 CD2        46.6180   24.3030   39.9520 C.2       1 LIG         0.0850 
     10 CE2        46.8980   22.9320   40.4510 C.3       1 LIG        -0.1800 
     11 OE1        45.5540   27.5140   39.6680 O.2       1 LIG        -0.5000 
     12 NE1        46.4010   25.8480   38.2670 N.2       1 LIG        -1.0225 
     13 OE2        46.7930   24.4970   38.5990 O.3       1 LIG        -0.1850 
     14 H1         48.4474   24.9504   41.8278 H         1 LIG         0.2100 
     15 H2         48.9672   25.4737   43.2978 H         1 LIG         0.2100 
     16 H3         47.8071   24.3054   43.2148 H         1 LIG         0.2100 
     17 HA         47.5377   27.1060   42.2938 H         1 LIG         0.0600 
     18 HB1        44.9599   26.3047   42.1260 H         1 LIG         0.0600 
     19 HB2        45.6070   24.7785   42.4453 H         1 LIG         0.0600 
     20 HE21       47.8900   22.5424   40.2609 H         1 LIG         0.0600 
     21 HE22       46.8496   22.9679   41.5375 H         1 LIG         0.0600 
     22 HE23       46.1195   22.2256   40.1730 H         1 LIG         0.0600 
@<TRIPOS>BOND
     1    1    2 1    
     2    1   14 1    
     3    1   15 1    
     4    1   16 1    
     5    2    3 1    
     6    2    6 1    
     7    2   17 1    
     8    3    4 2    
     9    3    5 1    
    10    6    7 1    
    11    6   18 1    
    12    6   19 1    
    13    7    8 1    
    14    7    9 2    
    15    8   11 2    
    16    8   12 1    
    17    9   10 1    
    18    9   13 1    
    19   10   20 1    
    20   10   21 1    
    21   10   22 1    
    22   12   13 1    
@<TRIPOS>SUBSTRUCTURE
     1 LIG         1 GROUP             0       ****    0 ROOT    
