@<TRIPOS>MOLECULE
:4eor_ligand
50   53    1
SMALL
USER_CHARGES


@<TRIPOS>ATOM
      1 C2         -7.9070  -23.4500   24.2370 C.ar      1 LIG         0.8648 
      2 C8        -10.7650  -20.9120   22.3300 C.ar      1 LIG         0.4010 
      3 C10        -5.2600  -21.3080   22.2460 C.3       1 LIG         0.1400 
      4 C11        -4.3640  -21.1010   21.0710 C.3       1 LIG        -0.0600 
      5 C12        -4.8380  -21.8720   19.8830 C.3       1 LIG        -0.1200 
      6 C13        -4.0570  -21.3390   18.7300 C.3       1 LIG        -0.1200 
      7 C14        -2.5710  -21.5660   18.9060 C.3       1 LIG        -0.1200 
      8 C15        -2.0630  -21.1350   20.2720 C.3       1 LIG        -0.1200 
      9 C16        -2.9800  -21.5870   21.3790 C.3       1 LIG        -0.1200 
     10 C19        -4.3900  -25.9490   24.0670 C.ar      1 LIG        -0.1150 
     11 C20        -4.0310  -26.6010   25.2290 C.ar      1 LIG         0.1567 
     12 C21        -4.8600  -26.4780   26.3040 C.ar      1 LIG        -0.1150 
     13 C22        -6.0140  -25.7380   26.2100 C.ar      1 LIG        -0.1150 
     14 N26        -1.7250  -26.7560   24.5150 N.pl3     1 LIG        -0.7678 
     15 N1         -7.0720  -22.7870   23.4560 N.ar      1 LIG        -0.7325 
     16 C6         -7.4650  -21.8480   22.6350 C.ar      1 LIG         0.5275 
     17 O6         -6.5860  -21.2020   21.8840 O.3       1 LIG        -0.3000 
     18 C5         -8.7730  -21.5440   22.5820 C.ar      1 LIG         0.0380 
     19 N7         -9.5310  -20.7100   21.9430 N.2       1 LIG        -0.6252 
     20 N9        -10.8450  -21.8700   23.2330 N.pl3     1 LIG        -0.7157 
     21 C4         -9.6350  -22.2880   23.4380 C.ar      1 LIG         0.7565 
     22 N3         -9.1890  -23.2200   24.2430 N.ar      1 LIG        -0.7701 
     23 N2         -7.4810  -24.3930   25.0540 N.pl3     1 LIG        -0.7800 
     24 C17        -6.3520  -25.0830   25.0580 C.ar      1 LIG         0.2000 
     25 C18        -5.5340  -25.1990   23.9800 C.ar      1 LIG        -0.1150 
     26 S23        -2.7080  -27.4410   25.2860 S.o2      1 LIG         0.8327 
     27 O24        -2.8100  -28.6690   24.6820 O.2       1 LIG        -0.4680 
     28 O25        -2.1700  -27.5660   26.5450 O.2       1 LIG        -0.4680 
     29 H8        -11.5892  -20.3344   21.9545 H         1 LIG         0.1197 
     30 H101       -5.0306  -20.5921   23.0346 H         1 LIG         0.0300 
     31 H102       -4.9645  -22.2870   22.6257 H         1 LIG         0.0300 
     32 H11        -4.3631  -20.0292   20.8606 H         1 LIG         0.0600 
     33 H121       -5.8940  -21.7043   19.6701 H         1 LIG         0.0600 
     34 H122       -4.7086  -22.9498   20.0004 H         1 LIG         0.0600 
     35 H131       -4.2556  -20.2753   18.5874 H         1 LIG         0.0600 
     36 H132       -4.4091  -21.8263   17.8299 H         1 LIG         0.0600 
     37 H141       -2.0147  -21.0630   18.1148 H         1 LIG         0.0600 
     38 H142       -2.3710  -22.6316   18.7826 H         1 LIG         0.0600 
     39 H151       -2.0003  -20.0489   20.2968 H         1 LIG         0.0600 
     40 H152       -1.0505  -21.5047   20.4362 H         1 LIG         0.0600 
     41 H161       -2.9430  -22.6725   21.4900 H         1 LIG         0.0600 
     42 H162       -2.6310  -21.1665   22.3234 H         1 LIG         0.0600 
     43 H19        -3.7818  -26.0354   23.1783 H         1 LIG         0.1150 
     44 H21        -4.6261  -26.9754   27.2341 H         1 LIG         0.1150 
     45 H22        -6.6549  -25.6721   27.0776 H         1 LIG         0.1150 
     46 H261       -1.9196  -26.7798   23.5107 H         1 LIG         0.3572 
     47 H262       -1.5525  -25.8127   24.8591 H         1 LIG         0.3572 
     48 HN9       -11.7036  -22.1659   23.6828 H         1 LIG         0.4360 
     49 HN2        -8.1801  -24.7273   25.7058 H         1 LIG         0.3800 
     50 H18        -5.7586  -24.7620   23.0208 H         1 LIG         0.1150 
@<TRIPOS>BOND
     1    1   15 ar   
     2    1   22 ar   
     3    1   23 1    
     4    2   19 ar   
     5    2   20 ar   
     6    2   29 1    
     7    3    4 1    
     8    3   17 1    
     9    3   30 1    
    10    3   31 1    
    11    4    5 1    
    12    4    9 1    
    13    4   32 1    
    14    5    6 1    
    15    5   33 1    
    16    5   34 1    
    17    6    7 1    
    18    6   35 1    
    19    6   36 1    
    20    7    8 1    
    21    7   37 1    
    22    7   38 1    
    23    8    9 1    
    24    8   39 1    
    25    8   40 1    
    26    9   41 1    
    27    9   42 1    
    28   10   11 ar   
    29   10   25 ar   
    30   10   43 1    
    31   11   12 ar   
    32   11   26 1    
    33   12   13 ar   
    34   12   44 1    
    35   13   24 ar   
    36   13   45 1    
    37   14   26 1    
    38   14   46 1    
    39   14   47 1    
    40   15   16 ar   
    41   16   17 1    
    42   16   18 ar   
    43   18   19 ar   
    44   18   21 ar   
    45   20   21 ar   
    46   20   48 1    
    47   21   22 ar   
    48   23   24 1    
    49   23   49 1    
    50   24   25 ar   
    51   25   50 1    
    52   26   27 2    
    53   26   28 2    
@<TRIPOS>SUBSTRUCTURE
     1 LIG         1 GROUP             0       ****    0 ROOT    
