@<TRIPOS>MOLECULE
:2hb1_ligand
17   17    1
SMALL
USER_CHARGES


@<TRIPOS>ATOM
      1 C1         45.2050   12.9580    1.1080 C.2       1 LIG        -0.3255 
      2 C2         45.7690   13.3870    2.3300 C.2       1 LIG         0.2473 
      3 S3         44.4110   14.2720    0.3820 S.3       1 LIG         0.0328 
      4 C4         44.7680   15.3960    1.6130 C.2       1 LIG        -0.1787 
      5 C5         45.5320   14.7580    2.6290 C.2       1 LIG         0.1473 
      6 C6         44.3330   16.7240    1.5480 C.2       1 LIG         0.7150 
      7 O7         43.6320   17.0320    0.4400 O.co2     1 LIG        -0.8000 
      8 O8         46.0460   15.3500    3.8450 O.3       1 LIG        -0.3000 
      9 C9         47.2700   16.0930    3.6600 C.3       1 LIG         0.1400 
     10 C10        47.5730   16.9740    4.8740 C.2       1 LIG         0.6000 
     11 O13        48.7260   17.6560    4.7940 O.co2     1 LIG        -0.8000 
     12 O14        44.5590   17.5410    2.4090 O.co2     1 LIG        -0.8000 
     13 O15        46.8560   17.0500    5.8220 O.co2     1 LIG        -0.8000 
     14 BR19       46.7460   12.2290    3.4440 Br        1 LIG        -0.2000 
     15 H1         45.2279   11.9847    0.6412 H         1 LIG         0.2618 
     16 H91        47.2041   16.7314    2.7783 H         1 LIG         0.0300 
     17 H92        48.0964   15.3995    3.5029 H         1 LIG         0.0300 
@<TRIPOS>BOND
     1    1    2 2    
     2    1    3 1    
     3    1   15 1    
     4    2    5 1    
     5    2   14 1    
     6    3    4 1    
     7    4    5 2    
     8    4    6 1    
     9    5    8 1    
    10    6    7 2    
    11    6   12 1    
    12    8    9 1    
    13    9   10 1    
    14    9   16 1    
    15    9   17 1    
    16   10   11 2    
    17   10   13 1    
@<TRIPOS>SUBSTRUCTURE
     1 LIG         1 GROUP             0       ****    0 ROOT    
