@<TRIPOS>MOLECULE
:2xys_ligand
50   56    1
SMALL
USER_CHARGES


@<TRIPOS>ATOM
      1 CAV       -42.9440    7.4570  -16.9290 C.3       1 LIG         0.2100 
      2 CAU       -41.9900    7.1990  -18.1010 C.3       1 LIG        -0.1200 
      3 CAT       -40.7140    6.5440  -17.5940 C.3       1 LIG        -0.0600 
      4 CAN       -41.0620    5.1650  -17.0300 C.3       1 LIG        -0.0600 
      5 CAK       -42.0570    5.2400  -15.8770 C.3       1 LIG         0.1500 
      6 NAH       -42.7000    3.9170  -15.8410 N.pl3     1 LIG        -0.6300 
      7 CAA       -44.0650    3.9930  -16.1040 C.ar      1 LIG         0.2100 
      8 CAF       -44.9770    2.9560  -16.3080 C.ar      1 LIG        -0.1150 
      9 CAE       -46.2920    3.2310  -16.6460 C.ar      1 LIG        -0.1150 
     10 CAD       -46.6780    4.5540  -16.8200 C.ar      1 LIG        -0.1150 
     11 CAC       -45.7620    5.5900  -16.6500 C.ar      1 LIG        -0.1150 
     12 CAB       -44.4390    5.3160  -16.3360 C.ar      1 LIG        -0.1150 
     13 CAG       -43.2320    6.2250  -16.0280 C.3       1 LIG         0.1150 
     14 CAW       -43.5470    6.8790  -14.6840 C.3       1 LIG        -0.1200 
     15 CAX       -42.4180    7.8980  -14.6160 C.3       1 LIG         0.1500 
     16 NAY       -42.3470    8.4640  -15.9910 N.4       1 LIG        -0.1000 
     17 CAS       -40.9240    8.7590  -16.2420 C.3       1 LIG         0.1500 
     18 CAR       -40.1910    7.4520  -16.5210 C.2       1 LIG         0.0000 
     19 CAQ       -39.0950    7.2170  -15.7090 C.2       1 LIG        -0.1840 
     20 CAP       -38.3450    6.0510  -15.8310 C.3       1 LIG         0.2090 
     21 OAO       -38.9960    4.7820  -15.5800 O.3       1 LIG        -0.4000 
     22 CAM       -39.8690    4.2820  -16.5900 C.3       1 LIG         0.1700 
     23 CAL       -40.3490    2.9870  -15.8440 C.3       1 LIG        -0.1200 
     24 CAI       -41.8680    2.8070  -15.9080 C.3       1 LIG         0.4150 
     25 OAJ       -42.4320    1.5680  -15.9210 O.3       1 LIG        -0.6830 
     26 HAV       -43.8811    7.8804  -17.2925 H         1 LIG         0.0600 
     27 HAU1      -41.7492    8.1239  -18.5944 H         1 LIG         0.0600 
     28 HAU2      -42.4732    6.5695  -18.8498 H         1 LIG         0.0600 
     29 HAT       -39.9857    6.4648  -18.4000 H         1 LIG         0.0600 
     30 HAN       -41.5290    4.6616  -17.8779 H         1 LIG         0.0600 
     31 HAK       -41.5241    5.3946  -14.9388 H         1 LIG         0.0600 
     32 HAF       -44.7347    1.9160  -16.1833 H         1 LIG         0.1150 
     33 HAE       -47.0029    2.4290  -16.7806 H         1 LIG         0.1150 
     34 HAD       -47.6963    4.7865  -17.0893 H         1 LIG         0.1150 
     35 HAC       -46.0828    6.6130  -16.7796 H         1 LIG         0.1150 
     36 HAW1      -43.5422    6.1905  -13.8379 H         1 LIG         0.0600 
     37 HAW2      -44.5059    7.3960  -14.7110 H         1 LIG         0.0600 
     38 HAX1      -41.4984    7.4350  -14.2585 H         1 LIG         0.0600 
     39 HAX2      -42.6614    8.6846  -13.9084 H         1 LIG         0.0600 
     40 HNAY      -42.8834    9.3226  -16.0150 H         1 LIG         0.2900 
     41 HAS1      -40.4952    9.3099  -15.4017 H         1 LIG         0.0600 
     42 HAS2      -40.8254    9.4284  -17.0974 H         1 LIG         0.0600 
     43 HAQ       -38.8053    7.9137  -14.9381 H         1 LIG         0.1150 
     44 HAP1      -37.5451    6.1034  -15.0959 H         1 LIG         0.0300 
     45 HAP2      -37.8557    6.0314  -16.8053 H         1 LIG         0.0300 
     46 HAM       -39.2660    4.0248  -17.4599 H         1 LIG         0.0300 
     47 HAL1      -39.8459    2.6797  -14.9393 H         1 LIG         0.0600 
     48 HAL2      -39.9675    2.1876  -16.4816 H         1 LIG         0.0600 
     49 HAI       -41.9135    2.7750  -16.9960 H         1 LIG         0.0600 
     50 HOAJ      -43.3689    1.6729  -15.9154 H         1 LIG         0.4180 
@<TRIPOS>BOND
     1    1    2 1    
     2    1   13 1    
     3    1   16 1    
     4    1   26 1    
     5    2    3 1    
     6    2   27 1    
     7    2   28 1    
     8    3    4 1    
     9    3   18 1    
    10    3   29 1    
    11    4    5 1    
    12    4   22 1    
    13    4   30 1    
    14    5    6 1    
    15    5   13 1    
    16    5   31 1    
    17    6    7 1    
    18    6   24 1    
    19    7    8 ar   
    20    7   12 ar   
    21    8    9 ar   
    22    8   32 1    
    23    9   10 ar   
    24    9   33 1    
    25   10   11 ar   
    26   10   34 1    
    27   11   12 ar   
    28   11   35 1    
    29   12   13 1    
    30   13   14 1    
    31   14   15 1    
    32   14   36 1    
    33   14   37 1    
    34   15   16 1    
    35   15   38 1    
    36   15   39 1    
    37   16   17 1    
    38   16   40 1    
    39   17   18 1    
    40   17   41 1    
    41   17   42 1    
    42   18   19 2    
    43   19   20 1    
    44   19   43 1    
    45   20   21 1    
    46   20   44 1    
    47   20   45 1    
    48   21   22 1    
    49   22   23 1    
    50   22   46 1    
    51   23   24 1    
    52   23   47 1    
    53   23   48 1    
    54   24   25 1    
    55   24   49 1    
    56   25   50 1    
@<TRIPOS>SUBSTRUCTURE
     1 LIG         1 GROUP             0       ****    0 ROOT    
