@<TRIPOS>MOLECULE
:2fxs_ligand
45   46    1
SMALL
USER_CHARGES


@<TRIPOS>ATOM
      1 C7         19.4390   35.7150    7.9830 C.3       1 LIG         0.1600 
      2 O4         19.5700   34.8980    6.8150 O.3       1 LIG        -0.3300 
      3 C6         18.3630   34.6030    6.2580 C.2       1 LIG         0.6250 
      4 O3         17.3240   35.0640    6.7280 O.2       1 LIG        -0.4300 
      5 C5         18.3240   33.7300    5.0000 C.ar      1 LIG        -0.1150 
      6 C4         17.3560   32.7330    4.9060 C.ar      1 LIG         0.1500 
      7 O2         16.4430   32.5690    5.9000 O.3       1 LIG        -0.5850 
      8 C3         17.3310   31.8790    3.8090 C.ar      1 LIG        -0.1150 
      9 C2         18.2870   32.0340    2.8100 C.ar      1 LIG        -0.1700 
     10 O1         18.2990   31.1870    1.7460 O.co2     1 LIG        -0.8300 
     11 C1         19.2470   33.0350    2.9110 C.ar      1 LIG         0.1800 
     12 CL         20.3870   33.2070    1.6210 Cl        1 LIG        -0.1800 
     13 C8         19.2860   33.9000    4.0050 C.ar      1 LIG        -0.1150 
     14 C9         20.3420   35.0080    4.0990 C.3       1 LIG        -0.0050 
     15 C10        21.6830   34.4570    4.5910 C.3       1 LIG        -0.1200 
     16 C11        22.7690   35.5340    4.6240 C.2       1 LIG         0.5000 
     17 O5         23.2910   35.9330    3.5840 O.2       1 LIG        -0.5000 
     18 N1         23.0650   35.9930    5.8390 N.am      1 LIG        -0.3850 
     19 C12        23.9910   36.9160    6.0970 C.ar      1 LIG         0.0850 
     20 C18        24.8080   37.4450    5.1010 C.ar      1 LIG        -0.1150 
     21 C17        25.8140   38.3530    5.4210 C.ar      1 LIG         0.1500 
     22 O8         26.5400   38.8020    4.5330 O.3       1 LIG        -0.5850 
     23 C15        26.0100   38.7420    6.7430 C.ar      1 LIG         0.0850 
     24 O7         27.0150   39.5990    7.0650 O.3       1 LIG        -0.2850 
     25 C16        26.5750   40.9610    7.0320 C.3       1 LIG         0.1100 
     26 C14        25.1900   38.2190    7.7410 C.ar      1 LIG        -0.1150 
     27 C13        24.1860   37.3120    7.4180 C.ar      1 LIG         0.1500 
     28 O6         23.4610   36.8620    8.3050 O.3       1 LIG        -0.5850 
     29 H71        20.4298   35.9369    8.3791 H         1 LIG         0.0300 
     30 H72        18.9505   36.6665    7.7686 H         1 LIG         0.0300 
     31 H73        18.8840   35.1919    8.7605 H         1 LIG         0.0300 
     32 HO2        15.8387   31.8421    5.7578 H         1 LIG         0.4350 
     33 H3         16.5890   31.0962    3.7381 H         1 LIG         0.1150 
     34 H91        20.0266   35.8725    4.6756 H         1 LIG         0.0600 
     35 H92        20.4752   35.4307    3.1028 H         1 LIG         0.0600 
     36 H101       22.0266   33.6625    3.9282 H         1 LIG         0.0600 
     37 H102       21.5831   33.9943    5.5729 H         1 LIG         0.0600 
     38 HN1        22.5609   35.6217    6.6309 H         1 LIG         0.3000 
     39 H18        24.8555   37.2530    4.0496 H         1 LIG         0.1150 
     40 HO8        27.1944   39.3846    4.8909 H         1 LIG         0.4350 
     41 H161       27.3522   41.6144    7.4278 H         1 LIG         0.0300 
     42 H162       26.4003   41.2315    5.9961 H         1 LIG         0.0300 
     43 H163       25.6635   41.1212    7.6104 H         1 LIG         0.0300 
     44 H14        25.3460   38.5205    8.7667 H         1 LIG         0.1150 
     45 HO6        23.4323   37.4526    9.0435 H         1 LIG         0.4350 
@<TRIPOS>BOND
     1    1    2 1    
     2    1   29 1    
     3    1   30 1    
     4    1   31 1    
     5    2    3 1    
     6    3    4 2    
     7    3    5 1    
     8    5    6 ar   
     9    5   13 ar   
    10    6    7 1    
    11    6    8 ar   
    12    7   32 1    
    13    8    9 ar   
    14    8   33 1    
    15    9   10 1    
    16    9   11 ar   
    17   11   12 1    
    18   11   13 ar   
    19   13   14 1    
    20   14   15 1    
    21   14   34 1    
    22   14   35 1    
    23   15   16 1    
    24   15   36 1    
    25   15   37 1    
    26   16   17 2    
    27   16   18 am   BACKBONE|DICT|INTERRES
    28   18   19 1    
    29   18   38 1    
    30   19   20 ar   
    31   19   27 ar   
    32   20   21 ar   
    33   20   39 1    
    34   21   22 1    
    35   21   23 ar   
    36   22   40 1    
    37   23   24 1    
    38   23   26 ar   
    39   24   25 1    
    40   25   41 1    
    41   25   42 1    
    42   25   43 1    
    43   26   27 ar   
    44   26   44 1    
    45   27   28 1    
    46   28   45 1    
@<TRIPOS>SUBSTRUCTURE
     1 LIG         1 GROUP             0       ****    0 ROOT    
