@<TRIPOS>MOLECULE
:2j78_ligand
25   25    1
SMALL
USER_CHARGES


@<TRIPOS>ATOM
      1 C1          0.1250   11.4600   10.3170 C.2       1 LIG         0.3340 
      2 N1          0.5030   11.3590   11.5760 N.2       1 LIG        -0.2590 
      3 C2          1.1740   12.1210    9.4020 C.3       1 LIG         0.2050 
      4 N5         -1.1350   10.9800    9.9070 N.pl3     1 LIG        -0.5075 
      5 O7         -0.3610   10.7420   12.4840 O.3       1 LIG        -0.4901 
      6 O2          1.6700   13.3100    9.9680 O.3       1 LIG        -0.6830 
      7 C3          0.5390   12.4040    8.0430 C.3       1 LIG         0.2050 
      8 O3          1.6100   12.6700    7.1400 O.3       1 LIG        -0.6830 
      9 C4         -0.2660   11.1900    7.5690 C.3       1 LIG         0.2050 
     10 O4         -0.6380   11.3320    6.2030 O.3       1 LIG        -0.6830 
     11 C5         -1.5140   11.1240    8.4950 C.3       1 LIG         0.0625 
     12 C6         -2.4280    9.9260    8.1640 C.3       1 LIG         0.1450 
     13 O6         -1.7790    8.6990    8.4330 O.3       1 LIG        -0.6830 
     14 H2          2.0037   11.4228    9.2894 H         1 LIG         0.0600 
     15 HN5        -1.7891   10.5297   10.5303 H         1 LIG         0.4100 
     16 HO7         0.0613   10.9812   13.3006 H         1 LIG         0.3901 
     17 HO2         0.9521   13.9208   10.1089 H         1 LIG         0.4180 
     18 H3         -0.0975   13.2899    8.0860 H         1 LIG         0.0600 
     19 HO3         1.2504   12.9957    6.3252 H         1 LIG         0.4180 
     20 H4          0.3335   10.2810    7.6478 H         1 LIG         0.0600 
     21 HO4        -1.0232   10.5143    5.9017 H         1 LIG         0.4180 
     22 H5         -2.0871   12.0442    8.3843 H         1 LIG         0.0600 
     23 H61        -2.7652    9.9542    7.1289 H         1 LIG         0.0600 
     24 H62        -3.3267    9.9737    8.7796 H         1 LIG         0.0600 
     25 HO6        -1.3614    8.3888    7.6337 H         1 LIG         0.4180 
@<TRIPOS>BOND
     1    1    2 2    
     2    1    3 1    
     3    1    4 1    
     4    2    5 1    
     5    3    6 1    
     6    3    7 1    
     7    3   14 1    
     8    4   11 1    
     9    4   15 1    
    10    5   16 1    
    11    6   17 1    
    12    7    8 1    
    13    7    9 1    
    14    7   18 1    
    15    8   19 1    
    16    9   10 1    
    17    9   11 1    
    18    9   20 1    
    19   10   21 1    
    20   11   12 1    
    21   11   22 1    
    22   12   13 1    
    23   12   23 1    
    24   12   24 1    
    25   13   25 1    
@<TRIPOS>SUBSTRUCTURE
     1 LIG         1 GROUP             0       ****    0 ROOT    
