@<TRIPOS>MOLECULE
:3f3e_ligand
22   21    1
SMALL
USER_CHARGES


@<TRIPOS>ATOM
      1 N          25.0760   32.3490   18.9300 N.4       1 LIG         0.2475 
      2 CA         26.3920   31.6910   18.8700 C.3       1 LIG         0.0625 
      3 C          26.3170   30.3870   18.1090 C.2       1 LIG         0.4450 
      4 O          27.3170   29.6230   17.9980 O.co2     1 LIG        -0.7225 
      5 CB         26.8930   31.3560   20.2840 C.3       1 LIG        -0.1200 
      6 CG         26.9710   32.5090   21.2790 C.3       1 LIG        -0.0600 
      7 CD1        27.4190   31.9970   22.6990 C.3       1 LIG        -0.1800 
      8 CD2        27.8850   33.6130   20.7820 C.3       1 LIG        -0.1800 
      9 OXT        25.2300   30.0260   17.6370 O.co2     1 LIG        -0.7225 
     10 H1         25.1556   33.2545   19.3739 H         1 LIG         0.2100 
     11 H2         24.7309   32.4588   17.9854 H         1 LIG         0.2100 
     12 H3         24.4346   31.7647   19.4499 H         1 LIG         0.2100 
     13 HA         27.0844   32.3458   18.3456 H         1 LIG         0.0600 
     14 HB1        27.8868   30.9131   20.2234 H         1 LIG         0.0600 
     15 HB2        26.2495   30.5889   20.7180 H         1 LIG         0.0600 
     16 HG         25.9718   32.9281   21.3968 H         1 LIG         0.0600 
     17 HD11       27.4119   32.8068   23.4273 H         1 LIG         0.0600 
     18 HD12       26.7510   31.2139   23.0560 H         1 LIG         0.0600 
     19 HD13       28.4251   31.5789   22.6680 H         1 LIG         0.0600 
     20 HD21       27.8215   34.4764   21.4418 H         1 LIG         0.0600 
     21 HD22       28.9255   33.2891   20.7631 H         1 LIG         0.0600 
     22 HD23       27.6193   33.9683   19.7896 H         1 LIG         0.0600 
@<TRIPOS>BOND
     1    1    2 1    
     2    1   10 1    
     3    1   11 1    
     4    1   12 1    
     5    2    3 1    
     6    2    5 1    
     7    2   13 1    
     8    3    4 2    
     9    3    9 1    
    10    5    6 1    
    11    5   14 1    
    12    5   15 1    
    13    6    7 1    
    14    6    8 1    
    15    6   16 1    
    16    7   17 1    
    17    7   18 1    
    18    7   19 1    
    19    8   20 1    
    20    8   21 1    
    21    8   22 1    
@<TRIPOS>SUBSTRUCTURE
     1 LIG         1 GROUP             0       ****    0 ROOT    
