@<TRIPOS>MOLECULE
:4abg_ligand
36   37    1
SMALL
USER_CHARGES


@<TRIPOS>ATOM
      1 C11       -21.6940    1.6930   14.2070 C.ar      1 LIG        -0.1150 
      2 C10       -20.7800    1.3240   15.1610 C.ar      1 LIG        -0.1150 
      3 C12       -22.6580    2.6400   14.4990 C.ar      1 LIG        -0.1150 
      4 C8        -21.7440    2.8330   16.6880 C.ar      1 LIG        -0.1150 
      5 C9        -20.7930    1.8550   16.4360 C.ar      1 LIG        -0.1150 
      6 C7        -22.6740    3.2340   15.7550 C.ar      1 LIG         0.2100 
      7 C3        -23.4610    4.8400   17.3730 C.3       1 LIG         0.0900 
      8 C5        -24.1090    5.0000   14.8840 C.3       1 LIG         0.0900 
      9 C2        -24.7060    5.7000   17.6530 C.3       1 LIG         0.1500 
     10 C6        -25.4140    5.6390   15.3010 C.3       1 LIG         0.1500 
     11 C15       -26.2420    7.3980   16.8240 C.3       1 LIG         0.0900 
     12 C13       -19.7270    1.3530   17.4080 C.3       1 LIG         0.3050 
     13 N4        -23.6680    4.1930   16.0490 N.pl3     1 LIG        -0.6300 
     14 N1        -25.1340    6.5000   16.4750 N.4       1 LIG        -0.1000 
     15 N14       -19.2050    2.4610   18.2260 N.4       1 LIG        -0.3000 
     16 H11       -21.6689    1.2347   13.2307 H         1 LIG         0.1150 
     17 H10       -20.0597    0.5661   14.9010 H         1 LIG         0.1150 
     18 H12       -23.3662    2.8249   13.7113 H         1 LIG         0.1150 
     19 H8        -21.7022    3.2331   17.6832 H         1 LIG         0.1150 
     20 H31       -23.4024    4.1218   18.1906 H         1 LIG         0.0600 
     21 H32       -22.5580    5.4519   17.3625 H         1 LIG         0.0600 
     22 H51       -23.3527    5.7472   14.6601 H         1 LIG         0.0600 
     23 H52       -24.3321    4.4600   13.9703 H         1 LIG         0.0600 
     24 H21       -24.5029    6.3566   18.5000 H         1 LIG         0.0600 
     25 H22       -25.5308    5.0514   17.9543 H         1 LIG         0.0600 
     26 H61       -26.1756    4.8921   15.5333 H         1 LIG         0.0600 
     27 H62       -25.7958    6.2481   14.4806 H         1 LIG         0.0600 
     28 H151      -26.5057    8.0292   15.9747 H         1 LIG         0.0600 
     29 H152      -27.1282    6.8328   17.1161 H         1 LIG         0.0600 
     30 H153      -25.9658    8.0548   17.6497 H         1 LIG         0.0600 
     31 H131      -18.9069    0.8255   16.9616 H         1 LIG         0.0600 
     32 H132      -20.2213    0.6502   18.0734 H         1 LIG         0.0600 
     33 HN1       -24.3538    7.0888   16.2213 H         1 LIG         0.2900 
     34 H141      -18.5403    2.1132   18.9097 H         1 LIG         0.3300 
     35 H142      -18.7178    3.1043   17.6150 H         1 LIG         0.3300 
     36 H143      -19.9553    2.9448   18.7019 H         1 LIG         0.3300 
@<TRIPOS>BOND
     1    1    2 ar   
     2    1    3 ar   
     3    1   16 1    
     4    2    5 ar   
     5    2   17 1    
     6    3    6 ar   
     7    3   18 1    
     8    4    5 ar   
     9    4    6 ar   
    10    4   19 1    
    11    5   12 1    
    12    6   13 1    
    13    7    9 1    
    14    7   13 1    
    15    7   20 1    
    16    7   21 1    
    17    8   10 1    
    18    8   13 1    
    19    8   22 1    
    20    8   23 1    
    21    9   14 1    
    22    9   24 1    
    23    9   25 1    
    24   10   14 1    
    25   10   26 1    
    26   10   27 1    
    27   11   14 1    
    28   11   28 1    
    29   11   29 1    
    30   11   30 1    
    31   12   15 1    
    32   12   31 1    
    33   12   32 1    
    34   14   33 1    
    35   15   34 1    
    36   15   35 1    
    37   15   36 1    
@<TRIPOS>SUBSTRUCTURE
     1 LIG         1 GROUP             0       ****    0 ROOT    
