@<TRIPOS>MOLECULE
:3kr8_ligand
32   34    1
SMALL
USER_CHARGES


@<TRIPOS>ATOM
      1 N1         37.9360  -11.1020  -12.9150 N.pl3     1 LIG        -0.4225 
      2 C2         38.7660  -11.7470  -12.1140 C.ar      1 LIG         0.4815 
      3 N3         39.5630  -12.6850  -12.6420 N.2       1 LIG        -0.4815 
      4 C4         39.6250  -12.9790  -13.9210 C.ar      1 LIG         0.1225 
      5 C5         38.8000  -12.3040  -14.8060 C.ar      1 LIG        -0.0567 
      6 C6         37.9380  -11.3600  -14.2410 C.ar      1 LIG         0.5567 
      7 O6         37.0810  -10.7290  -15.0730 O.2       1 LIG        -0.5000 
      8 FAB        39.7000  -11.3000   -5.7840 F         1 LIG        -0.2000 
      9 FAC        39.2930   -9.2680   -6.3280 F         1 LIG        -0.2000 
     10 FAD        37.6650  -10.6740   -5.9450 F         1 LIG        -0.2000 
     11 CAE        38.1960  -10.3860  -10.1950 C.ar      1 LIG        -0.1150 
     12 CAF        39.4980  -12.3470   -9.8340 C.ar      1 LIG        -0.1150 
     13 CAG        38.2420  -10.0680   -8.8360 C.ar      1 LIG        -0.1150 
     14 CAH        39.5090  -12.0450   -8.4620 C.ar      1 LIG        -0.1150 
     15 CAI        40.2190  -14.7320  -15.5870 C.3       1 LIG         0.0475 
     16 CAJ        40.6100  -14.0850  -14.2850 C.3       1 LIG        -0.1200 
     17 CAK        38.7540  -12.5860  -16.2770 C.3       1 LIG         0.0475 
     18 SAN        40.2590  -13.4300  -16.8530 S.3       1 LIG        -0.3350 
     19 CAP        38.8140  -11.4980  -10.7290 C.ar      1 LIG         0.0000 
     20 CAQ        38.8850  -10.9060   -7.9620 C.ar      1 LIG         0.1500 
     21 CAU        38.8830  -10.5260   -6.4610 C.3       1 LIG         0.4500 
     22 HN1        37.2794  -10.4313  -12.5350 H         1 LIG         0.3000 
     23 HAE        37.7443   -9.6463  -10.8288 H         1 LIG         0.1150 
     24 HAF        39.9940  -13.2434  -10.1753 H         1 LIG         0.1150 
     25 HAG        37.7645   -9.1699   -8.4749 H         1 LIG         0.1150 
     26 HAH        40.0257  -12.7121   -7.7890 H         1 LIG         0.1150 
     27 HAI1       39.2311  -15.1890  -15.5438 H         1 LIG         0.0600 
     28 HAI2       40.9315  -15.5148  -15.8396 H         1 LIG         0.0600 
     29 HAJ1       40.5614  -14.8476  -13.5065 H         1 LIG         0.0600 
     30 HAJ2       41.6409  -13.7719  -14.2874 H         1 LIG         0.0600 
     31 HAK1       38.6632  -11.6596  -16.8455 H         1 LIG         0.0600 
     32 HAK2       37.8814  -13.1999  -16.5034 H         1 LIG         0.0600 
@<TRIPOS>BOND
     1    1    2 ar   
     2    1    6 ar   
     3    1   22 1    
     4    2    3 ar   
     5    2   19 1    
     6    3    4 ar   
     7    4    5 ar   
     8    4   16 1    
     9    5    6 ar   
    10    5   17 1    
    11    6    7 2    
    12    8   21 1    
    13    9   21 1    
    14   10   21 1    
    15   11   13 ar   
    16   11   19 ar   
    17   11   23 1    
    18   12   14 ar   
    19   12   19 ar   
    20   12   24 1    
    21   13   20 ar   
    22   13   25 1    
    23   14   20 ar   
    24   14   26 1    
    25   15   16 1    
    26   15   18 1    
    27   15   27 1    
    28   15   28 1    
    29   16   29 1    
    30   16   30 1    
    31   17   18 1    
    32   17   31 1    
    33   17   32 1    
    34   20   21 1    
@<TRIPOS>SUBSTRUCTURE
     1 LIG         1 GROUP             0       ****    0 ROOT    
