:3kr8_ligand
                    3D
 Schrodinger Suite 2020-1.
 32 34  0  0  1  0            999 V2000
   37.9360  -11.1020  -12.9150 N   0  0  0  0  0  0
   38.7660  -11.7470  -12.1140 C   0  0  0  0  0  0
   39.5630  -12.6850  -12.6420 N   0  0  0  0  0  0
   39.6250  -12.9790  -13.9210 C   0  0  0  0  0  0
   38.8000  -12.3040  -14.8060 C   0  0  0  0  0  0
   37.9380  -11.3600  -14.2410 C   0  0  0  0  0  0
   37.0810  -10.7290  -15.0730 O   0  0  0  0  0  0
   39.7000  -11.3000   -5.7840 F   0  0  0  0  0  0
   39.2930   -9.2680   -6.3280 F   0  0  0  0  0  0
   37.6650  -10.6740   -5.9450 F   0  0  0  0  0  0
   38.1960  -10.3860  -10.1950 C   0  0  0  0  0  0
   39.4980  -12.3470   -9.8340 C   0  0  0  0  0  0
   38.2420  -10.0680   -8.8360 C   0  0  0  0  0  0
   39.5090  -12.0450   -8.4620 C   0  0  0  0  0  0
   40.2190  -14.7320  -15.5870 C   0  0  0  0  0  0
   40.6100  -14.0850  -14.2850 C   0  0  0  0  0  0
   38.7540  -12.5860  -16.2770 C   0  0  0  0  0  0
   40.2590  -13.4300  -16.8530 S   0  0  0  0  0  0
   38.8140  -11.4980  -10.7290 C   0  0  0  0  0  0
   38.8850  -10.9060   -7.9620 C   0  0  0  0  0  0
   38.8830  -10.5260   -6.4610 C   0  0  0  0  0  0
   37.2794  -10.4313  -12.5350 H   0  0  0  0  0  0
   37.7443   -9.6463  -10.8288 H   0  0  0  0  0  0
   39.9940  -13.2434  -10.1753 H   0  0  0  0  0  0
   37.7645   -9.1699   -8.4749 H   0  0  0  0  0  0
   40.0257  -12.7121   -7.7890 H   0  0  0  0  0  0
   39.2311  -15.1890  -15.5438 H   0  0  0  0  0  0
   40.9315  -15.5148  -15.8396 H   0  0  0  0  0  0
   40.5614  -14.8476  -13.5065 H   0  0  0  0  0  0
   41.6409  -13.7719  -14.2874 H   0  0  0  0  0  0
   38.6632  -11.6596  -16.8455 H   0  0  0  0  0  0
   37.8814  -13.1999  -16.5034 H   0  0  0  0  0  0
  1  2  1  0  0  0
  1  6  1  0  0  0
  1 22  1  0  0  0
  2  3  2  0  0  0
  2 19  1  0  0  0
  3  4  1  0  0  0
  4  5  2  0  0  0
  4 16  1  0  0  0
  5  6  1  0  0  0
  5 17  1  0  0  0
  6  7  2  0  0  0
  8 21  1  0  0  0
  9 21  1  0  0  0
 10 21  1  0  0  0
 11 13  2  0  0  0
 11 19  1  0  0  0
 11 23  1  0  0  0
 12 14  1  0  0  0
 12 19  2  0  0  0
 12 24  1  0  0  0
 13 20  1  0  0  0
 13 25  1  0  0  0
 14 20  2  0  0  0
 14 26  1  0  0  0
 15 16  1  0  0  0
 15 18  1  0  0  0
 15 27  1  0  0  0
 15 28  1  0  0  0
 16 29  1  0  0  0
 16 30  1  0  0  0
 17 18  1  0  0  0
 17 31  1  0  0  0
 17 32  1  0  0  0
 20 21  1  0  0  0
M  END
> <s_pdb_PDB_ID>


> <s_pdb_PDB_CLASSIFICATION>
3KR8_PROTEIN

> <s_pdb_PDB_format_version>
3.0

> <b_ppw_prepared>
1

> <s_ppw_prepared_with_version>
2020-1

> <b_ppw_created_disulfur>
1

> <s_ppw_het_states>
eJxdksEOgyAQRH+FcLaGXWWg/ZXGPzC99WT89wJrOogHMz4NMzvr4dW/3LtckqNOLmyTq3KhXCkjJSgTZaZ8/iUCpVDSDXQD3UA30A10A91At0S3RLfU3Kq+BrUZ5QprIBEsDZQw2oN6trAWa0RYjvWiPUB3KEaXBuoYwiqtRWWLFl7Y5R3ICNosYHQDXXS0WRAHUL9QbsHqE+7CgHIjt+Eu8CTIA0hd0kIeYS6Gh69Vll8wzLpqeeeXHKU9I6Z8Tu7z3Xe7b9v5A9VgkG4=

> <b_pa_PROPKA_failed>
1

> <r_ff_Potential_Energy-OPLS3e>
-73924.5711839176

> <r_ff_RMS_Derivative-OPLS3e>
0.0439099476050448

> <b_ff_Minimization_Converged-OPLS3e>
1

> <r_i_Potential_Energy-OPLS_2005>
-6140.14210329471

> <r_i_RMS_Derivative-OPLS_2005>
0.0335563353827394

> <r_i_Max_Derivative-OPLS_2005>
0.76960160633312

> <r_i_Stretch_Energy-OPLS_2005>
4.92524947373825

> <r_i_Bend_Energy-OPLS_2005>
140.249974185146

> <r_i_LJ-14_Energy-OPLS_2005>
293.179734567257

> <r_i_El-14_Energy-OPLS_2005>
-299.886590829392

> <r_i_Van_der_Waals_Energy-OPLS_2005>
-453.203447457427

> <r_i_Electrostatic_Energy-OPLS_2005>
-5918.89471257184

> <r_i_Dihedral_Energy-OPLS_2005>
93.48768933781

> <r_i_target_temperature>
298

> <s_user_Residue_ID>
_:1

$$$$
