4dli_ligand

Created by X-TOOL on Fri Nov 18 17:36:58 2016
 37 40  0  0  0  0  0  0  0  0999 V2000
   23.9510  -17.0200  -10.7870  N 0  0  0  1  0  2
   23.7610  -17.7670   -9.6720  C 0  0  0  1  0  3
   24.0140  -17.2130   -8.4700  N 0  0  0  1  0  2
   24.4770  -15.9560   -8.3730  C 0  0  0  1  0  3
   24.6550  -15.1760   -9.5110  C 0  0  0  1  0  3
   24.4140  -15.7530  -10.7530  C 0  0  0  1  0  3
   25.4880  -13.5930   -5.7910  N 0  0  0  3  0  3
   22.0700  -21.6240  -10.1730  C 0  0  0  2  0  3
   22.3560  -20.8030  -11.2580  C 0  0  0  2  0  3
   22.3690  -21.1600   -8.8750  C 0  0  0  2  0  3
   22.9280  -19.5440  -11.0690  C 0  0  0  2  0  3
   22.9540  -19.8950   -8.6880  C 0  0  0  2  0  3
   25.4390  -13.2950   -8.1480  C 0  0  0  2  0  3
   25.1500  -13.8640   -9.3930  C 0  0  0  2  0  3
   24.7850  -15.4040   -7.1300  C 0  0  0  2  0  3
   25.6170  -16.2920  -13.8110  C 0  0  0  3  0  4
   25.1050  -14.9780  -14.3790  C 0  0  0  3  0  4
   24.5870  -15.0370  -11.8930  N 0  0  0  2  0  3
   25.2360  -14.0890   -7.0050  C 0  0  0  1  0  3
   23.2420  -19.0650   -9.7990  C 0  0  0  1  0  3
   24.3650  -15.6630  -13.1980  C 0  0  0  2  0  4
   25.8211  -12.6236   -5.6897  H 0  0  0  1  0  1
   25.3493  -14.1798   -4.9559  H 0  0  0  1  0  1
   21.6259  -22.6016  -10.3217  H 0  0  0  1  0  1
   22.1322  -21.1446  -12.2621  H 0  0  0  1  0  1
   22.1464  -21.7826   -8.0160  H 0  0  0  1  0  1
   23.1333  -18.9225  -11.9331  H 0  0  0  1  0  1
   23.1863  -19.5525   -7.6861  H 0  0  0  1  0  1
   25.8063  -12.2783   -8.0672  H 0  0  0  1  0  1
   25.3117  -13.2785  -10.2908  H 0  0  0  1  0  1
   24.6714  -16.0110   -6.2391  H 0  0  0  1  0  1
   26.5557  -16.3109  -13.2379  H 0  0  0  1  0  1
   25.5308  -17.2144  -14.4041  H 0  0  0  1  0  1
   24.6437  -14.9519  -15.3772  H 0  0  0  1  0  1
   25.6686  -14.0484  -14.2110  H 0  0  0  1  0  1
   24.8755  -14.0497  -11.8400  H 0  0  0  1  0  1
   23.3622  -16.1041  -13.2969  H 0  0  0  1  0  1
  1  2  4  0  0  1
  6  1  4  0  0  1
  2  3  4  0  0  1
  2 20  1  0  0  2
  4  3  4  0  0  1
  5  4  4  0  0  1
  4 15  4  0  0  1
  6  5  4  0  0  1
  5 14  4  0  0  1
 18  6  1  0  0  2
 19  7  1  0  0  2
  9  8  4  0  0  1
 10  8  4  0  0  1
 11  9  4  0  0  1
 12 10  4  0  0  1
 20 11  4  0  0  1
 20 12  4  0  0  1
 14 13  4  0  0  1
 13 19  4  0  0  1
 15 19  4  0  0  1
 17 16  1  0  0  1
 21 16  1  0  0  1
 21 17  1  0  0  1
 18 21  1  0  0  2
  7 22  1  0  0  2
  7 23  1  0  0  2
  8 24  1  0  0  2
  9 25  1  0  0  2
 10 26  1  0  0  2
 11 27  1  0  0  2
 12 28  1  0  0  2
 13 29  1  0  0  2
 14 30  1  0  0  2
 15 31  1  0  0  2
 16 32  1  0  0  2
 16 33  1  0  0  2
 17 34  1  0  0  2
 17 35  1  0  0  2
 18 36  1  0  0  2
 21 37  1  0  0  2
M  END
> <MOLECULAR_FORMULA>
C17H16N4

> <MOLECULAR_WEIGHT>
276.2

> <NUM_HB_ATOMS>
4  

> <NUM_ROTOR>
1  

> <XLOGP2>
3.82 

$$$$
