@<TRIPOS>MOLECULE
:4dli_ligand
38   41    1
SMALL
USER_CHARGES


@<TRIPOS>ATOM
      1 N1         23.9510  -17.0200  -10.7870 N.ar      1 LIG        -0.7366 
      2 C2         23.7610  -17.7670   -9.6720 C.ar      1 LIG         0.8635 
      3 N3         24.0140  -17.2130   -8.4700 N.pl3     1 LIG        -0.8165 
      4 C4         24.4770  -15.9560   -8.3730 C.ar      1 LIG         0.8221 
      5 C5         24.6550  -15.1760   -9.5110 C.ar      1 LIG        -0.4207 
      6 C6         24.4140  -15.7530  -10.7530 C.ar      1 LIG         0.9339 
      7 NAA        25.4880  -13.5930   -5.7910 N.pl3     1 LIG        -0.9200 
      8 CAB        22.0700  -21.6240  -10.1730 C.ar      1 LIG        -0.1150 
      9 CAC        22.3560  -20.8030  -11.2580 C.ar      1 LIG        -0.1150 
     10 CAD        22.3690  -21.1600   -8.8750 C.ar      1 LIG        -0.1150 
     11 CAE        22.9280  -19.5440  -11.0690 C.ar      1 LIG        -0.1150 
     12 CAF        22.9540  -19.8950   -8.6880 C.ar      1 LIG        -0.1150 
     13 CAG        25.4390  -13.2950   -8.1480 C.ar      1 LIG        -0.1980 
     14 CAH        25.1500  -13.8640   -9.3930 C.ar      1 LIG        -0.0537 
     15 CAI        24.7850  -15.4040   -7.1300 C.ar      1 LIG        -0.5752 
     16 CAJ        25.6170  -16.2920  -13.8110 C.3       1 LIG        -0.1200 
     17 CAK        25.1050  -14.9780  -14.3790 C.3       1 LIG        -0.1200 
     18 NAN        24.5870  -15.0370  -11.8930 N.pl3     1 LIG        -0.7025 
     19 CAO        25.2360  -14.0890   -7.0050 C.ar      1 LIG         0.5014 
     20 CAP        23.2420  -19.0650   -9.7990 C.ar      1 LIG         0.0000 
     21 CAU        24.3650  -15.6630  -13.1980 C.3       1 LIG         0.0625 
     22 HN3        23.8763  -17.7574   -7.6135 H         1 LIG         0.4543 
     23 HAA1       25.1809  -14.0715   -4.9573 H         1 LIG         0.3600 
     24 HAA2       25.7345  -12.6142   -5.6728 H         1 LIG         0.3600 
     25 HAB        21.6207  -22.5945  -10.3250 H         1 LIG         0.1150 
     26 HAC        22.1609  -21.1607  -12.2547 H         1 LIG         0.1150 
     27 HAD        22.1350  -21.7762   -8.0192 H         1 LIG         0.1150 
     28 HAE        23.1150  -18.9682  -11.9636 H         1 LIG         0.1150 
     29 HAF        23.0954  -19.5646   -7.6849 H         1 LIG         0.1150 
     30 HAG        25.8060  -12.2805   -8.0720 H         1 LIG         0.1860 
     31 HAH        25.3347  -13.2486  -10.2579 H         1 LIG         0.1796 
     32 HAI        24.6489  -15.9974   -6.2384 H         1 LIG         0.2599 
     33 HAJ1       26.5322  -16.2549  -13.2231 H         1 LIG         0.0600 
     34 HAJ2       25.5498  -17.1498  -14.4637 H         1 LIG         0.0600 
     35 HAK1       24.6339  -15.0142  -15.3556 H         1 LIG         0.0600 
     36 HAK2       25.6799  -14.0779  -14.1701 H         1 LIG         0.0600 
     37 HNAN       24.7157  -14.0320  -11.8540 H         1 LIG         0.3800 
     38 HAU        23.4057  -16.1486  -13.3411 H         1 LIG         0.0600 
@<TRIPOS>BOND
     1    1    2 ar   
     2    1    6 ar   
     3    2    3 ar   
     4    2   20 1    
     5    3    4 ar   
     6    3   22 1    
     7    4    5 ar   
     8    4   15 ar   
     9    5    6 ar   
    10    5   14 ar   
    11    6   18 1    
    12    7   19 1    
    13    7   23 1    
    14    7   24 1    
    15    8    9 ar   
    16    8   10 ar   
    17    8   25 1    
    18    9   11 ar   
    19    9   26 1    
    20   10   12 ar   
    21   10   27 1    
    22   11   20 ar   
    23   11   28 1    
    24   12   20 ar   
    25   12   29 1    
    26   13   14 ar   
    27   13   19 ar   
    28   13   30 1    
    29   14   31 1    
    30   15   19 ar   
    31   15   32 1    
    32   16   17 1    
    33   16   21 1    
    34   16   33 1    
    35   16   34 1    
    36   17   21 1    
    37   17   35 1    
    38   17   36 1    
    39   18   21 1    
    40   18   37 1    
    41   21   38 1    
@<TRIPOS>SUBSTRUCTURE
     1 LIG         1 GROUP             0       ****    0 ROOT    
