@<TRIPOS>MOLECULE
:2p15_ligand
61   65    1
SMALL
USER_CHARGES


@<TRIPOS>ATOM
      1 C18       -36.7690    1.4740   21.4410 C.3       1 LIG        -0.1800 
      2 C13       -36.7330    2.9750   21.0600 C.3       1 LIG         0.0000 
      3 C12       -36.4740    3.0800   19.5290 C.3       1 LIG        -0.1200 
      4 C11       -35.0260    2.6480   19.1350 C.3       1 LIG        -0.1200 
      5 C9        -33.9710    3.4520   19.9770 C.3       1 LIG         0.0550 
      6 C10       -32.4930    3.2460   19.5510 C.ar      1 LIG        -0.1150 
      7 C1        -32.1850    3.0220   18.2180 C.ar      1 LIG        -0.1150 
      8 C2        -30.8480    2.8710   17.8490 C.ar      1 LIG        -0.1150 
      9 C3        -29.8390    2.9430   18.8160 C.ar      1 LIG         0.1500 
     10 O3        -28.5390    2.7850   18.4800 O.3       1 LIG        -0.5850 
     11 C4        -30.1470    3.1670   20.1440 C.ar      1 LIG        -0.1150 
     12 C5        -31.4690    3.3480   20.5160 C.ar      1 LIG        -0.1150 
     13 C6        -31.7280    3.5610   22.0260 C.3       1 LIG        -0.0050 
     14 C7        -33.1350    4.1440   22.2660 C.3       1 LIG        -0.1200 
     15 C8        -34.1850    3.2790   21.5130 C.3       1 LIG        -0.0600 
     16 C14       -35.6350    3.7630   21.8190 C.3       1 LIG        -0.0600 
     17 C15       -36.1520    3.7540   23.2820 C.3       1 LIG        -0.1200 
     18 C16       -37.6710    3.9290   23.1000 C.3       1 LIG        -0.1200 
     19 C17       -37.9770    3.7810   21.5860 C.3       1 LIG         0.2650 
     20 O17       -39.2210    3.0820   21.3760 O.3       1 LIG        -0.6830 
     21 C19       -38.0230    5.0580   20.9440 C.2       1 LIG        -0.1150 
     22 C20       -37.7730    6.3080   21.5410 C.2       1 LIG        -0.1150 
     23 C21       -37.7500    7.5330   20.8310 C.ar      1 LIG         0.0000 
     24 C22       -38.6210    7.7700   19.7630 C.ar      1 LIG        -0.1150 
     25 C23       -38.5550    8.9770   19.0450 C.ar      1 LIG        -0.1150 
     26 C24       -37.6220    9.9690   19.3950 C.ar      1 LIG        -0.1150 
     27 C25       -36.7400    9.7390   20.4450 C.ar      1 LIG        -0.1150 
     28 C26       -36.7980    8.5310   21.1620 C.ar      1 LIG         0.1500 
     29 C27       -35.7960    8.3650   22.3380 C.3       1 LIG         0.4500 
     30 F02       -34.9920    9.4060   22.3590 F         1 LIG        -0.2000 
     31 F03       -36.3940    8.3520   23.5370 F         1 LIG        -0.2000 
     32 F01       -35.0690    7.2540   22.2500 F         1 LIG        -0.2000 
     33 H181      -37.0272    1.3012   22.4849 H         1 LIG         0.0600 
     34 H182      -37.5234    0.9600   20.8481 H         1 LIG         0.0600 
     35 H183      -35.8261    0.9619   21.2594 H         1 LIG         0.0600 
     36 H121      -36.5634    4.0967   19.1541 H         1 LIG         0.0600 
     37 H122      -37.2089    2.4930   18.9766 H         1 LIG         0.0600 
     38 H111      -34.9120    2.7999   18.0676 H         1 LIG         0.0600 
     39 H112      -34.8846    1.5789   19.2915 H         1 LIG         0.0600 
     40 H9        -34.1508    4.5025   19.7432 H         1 LIG         0.0600 
     41 H1        -32.9355    2.9820   17.4475 H         1 LIG         0.1150 
     42 H2        -30.5981    2.6974   16.8125 H         1 LIG         0.1150 
     43 HO3       -28.4072    2.6382   17.5558 H         1 LIG         0.4350 
     44 H4        -29.3610    3.2196   20.8815 H         1 LIG         0.1150 
     45 H61       -30.9699    4.2204   22.4497 H         1 LIG         0.0600 
     46 H62       -31.6295    2.5976   22.5272 H         1 LIG         0.0600 
     47 H71       -33.1799    5.1796   21.9277 H         1 LIG         0.0600 
     48 H72       -33.3379    4.1590   23.3362 H         1 LIG         0.0600 
     49 H8        -34.0582    2.2350   21.7816 H         1 LIG         0.0600 
     50 H14       -35.6168    4.8031   21.4989 H         1 LIG         0.0600 
     51 H151      -35.7200    4.5687   23.8632 H         1 LIG         0.0600 
     52 H152      -35.9119    2.8198   23.7908 H         1 LIG         0.0600 
     53 H161      -38.1088    4.7776   23.6208 H         1 LIG         0.0600 
     54 H162      -38.1323    3.0848   23.6124 H         1 LIG         0.0600 
     55 HO17      -39.9085    3.5546   21.8299 H         1 LIG         0.4180 
     56 H19       -38.2812    5.0406   19.8955 H         1 LIG         0.1150 
     57 H20       -37.5452    6.4062   22.5870 H         1 LIG         0.1150 
     58 H22       -39.3513    7.0299   19.4758 H         1 LIG         0.1150 
     59 H23       -39.2093    9.1553   18.2107 H         1 LIG         0.1150 
     60 H24       -37.5748   10.8927   18.8374 H         1 LIG         0.1150 
     61 H25       -36.0133   10.5029   20.6643 H         1 LIG         0.1150 
@<TRIPOS>BOND
     1    1    2 1    
     2    1   33 1    
     3    1   34 1    
     4    1   35 1    
     5    2    3 1    
     6    2   16 1    
     7    2   19 1    
     8    3    4 1    
     9    3   36 1    
    10    3   37 1    
    11    4    5 1    
    12    4   38 1    
    13    4   39 1    
    14    5    6 1    
    15    5   15 1    
    16    5   40 1    
    17    6    7 ar   
    18    6   12 ar   
    19    7    8 ar   
    20    7   41 1    
    21    8    9 ar   
    22    8   42 1    
    23    9   10 1    
    24    9   11 ar   
    25   10   43 1    
    26   11   12 ar   
    27   11   44 1    
    28   12   13 1    
    29   13   14 1    
    30   13   45 1    
    31   13   46 1    
    32   14   15 1    
    33   14   47 1    
    34   14   48 1    
    35   15   16 1    
    36   15   49 1    
    37   16   17 1    
    38   16   50 1    
    39   17   18 1    
    40   17   51 1    
    41   17   52 1    
    42   18   19 1    
    43   18   53 1    
    44   18   54 1    
    45   19   20 1    
    46   19   21 1    
    47   20   55 1    
    48   21   22 2    
    49   21   56 1    
    50   22   23 1    
    51   22   57 1    
    52   23   24 ar   
    53   23   28 ar   
    54   24   25 ar   
    55   24   58 1    
    56   25   26 ar   
    57   25   59 1    
    58   26   27 ar   
    59   26   60 1    
    60   27   28 ar   
    61   27   61 1    
    62   28   29 1    
    63   29   30 1    
    64   29   31 1    
    65   29   32 1    
@<TRIPOS>SUBSTRUCTURE
     1 LIG         1 GROUP             0       ****    0 ROOT    
