@<TRIPOS>MOLECULE
:4agp_ligand
62   64    1
SMALL
USER_CHARGES


@<TRIPOS>ATOM
      1 C01        91.5770   93.4520  -45.2950 C.ar      1 LIG         0.1164 
      2 C04        91.7530   92.3450  -46.1880 C.1       1 LIG        -0.1164 
      3 C05        91.8950   91.4530  -46.9720 C.1       1 LIG         0.0000 
      4 C06        92.1440   90.3480  -47.9190 C.3       1 LIG         0.1400 
      5 O          90.9260   89.9330  -48.5430 O.3       1 LIG        -0.2850 
      6 C07        90.3680   90.7330  -49.5100 C.ar      1 LIG         0.0850 
      7 C1         90.9060   95.7610  -44.9550 C.ar      1 LIG        -0.1150 
      8 N1         90.8320   98.2450  -44.8170 N.3       1 LIG        -0.6300 
      9 O1         91.0790   96.7610  -42.7680 O.3       1 LIG        -0.5850 
     10 C02        91.9220   93.3360  -43.9450 C.ar      1 LIG        -0.1150 
     11 C2         90.3530   97.0310  -45.5320 C.3       1 LIG         0.2050 
     12 N2         92.0580  102.3500  -44.2520 N.4       1 LIG        -0.1000 
     13 C03        89.7980   99.3400  -44.8630 C.3       1 LIG         0.0900 
     14 C3         91.0740   94.6640  -45.8050 C.ar      1 LIG        -0.1150 
     15 C4         91.7430   94.4530  -43.1210 C.ar      1 LIG         0.1000 
     16 C7         91.2390   95.6800  -43.5770 C.ar      1 LIG         0.1500 
     17 C8         90.3350  100.5070  -44.0570 C.3       1 LIG        -0.1200 
     18 C10        91.5700  100.9970  -44.8020 C.3       1 LIG         0.2100 
     19 C11        93.0710  102.1710  -43.1140 C.3       1 LIG         0.1500 
     20 C12        93.7770  103.4970  -42.9020 C.3       1 LIG        -0.1800 
     21 C13        90.9580  103.2970  -43.7890 C.3       1 LIG         0.1500 
     22 C14        90.1540  103.9020  -44.9310 C.3       1 LIG        -0.1800 
     23 C15        92.6740   99.9330  -44.6790 C.3       1 LIG        -0.1200 
     24 C16        92.1560   98.6850  -45.3690 C.3       1 LIG         0.0900 
     25 I2         92.2500   94.2730  -41.0690 I         1 LIG        -0.1000 
     26 C08        89.1070   90.3130  -49.9440 C.ar      1 LIG        -0.1150 
     27 C09        88.4200   91.0300  -50.9270 C.ar      1 LIG        -0.1150 
     28 C17        88.9920   92.1730  -51.4820 C.ar      1 LIG        -0.1150 
     29 C18        90.2540   92.5960  -51.0580 C.ar      1 LIG        -0.1150 
     30 C          90.9380   91.8770  -50.0700 C.ar      1 LIG        -0.1150 
     31 H061       92.6008   89.5227  -47.3804 H         1 LIG         0.0300 
     32 H062       92.8902   90.6452  -48.6513 H         1 LIG         0.0300 
     33 HO1        90.8594   97.5244  -43.2914 H         1 LIG         0.4350 
     34 H02        92.3078   92.4131  -43.5387 H         1 LIG         0.1150 
     35 H21        89.2727   96.9577  -45.4013 H         1 LIG         0.0600 
     36 H22        90.5122   97.1043  -46.6026 H         1 LIG         0.0600 
     37 HN2        92.5630  102.8032  -45.0003 H         1 LIG         0.2900 
     38 H031       88.8675   98.9813  -44.4209 H         1 LIG         0.0600 
     39 H032       89.5830   99.6245  -45.8943 H         1 LIG         0.0600 
     40 H3         90.7908   94.7466  -46.8436 H         1 LIG         0.1150 
     41 H81        90.5517  100.2289  -43.0239 H         1 LIG         0.0600 
     42 H82        89.5196  101.2263  -44.0448 H         1 LIG         0.0600 
     43 H10        91.3254  101.1691  -45.8518 H         1 LIG         0.0600 
     44 H111       93.8961  101.5069  -43.3513 H         1 LIG         0.0600 
     45 H112       92.5995  101.8054  -42.2006 H         1 LIG         0.0600 
     46 H121       94.7055  103.3339  -42.3532 H         1 LIG         0.0600 
     47 H122       94.0486  103.9724  -43.8455 H         1 LIG         0.0600 
     48 H123       93.2070  104.2028  -42.2998 H         1 LIG         0.0600 
     49 H131       91.3827  104.1697  -43.3038 H         1 LIG         0.0600 
     50 H132       90.3257  102.8672  -43.0132 H         1 LIG         0.0600 
     51 H141       89.4164  104.6106  -44.5532 H         1 LIG         0.0600 
     52 H142       90.8008  104.4366  -45.6274 H         1 LIG         0.0600 
     53 H143       89.6174  103.1386  -45.4944 H         1 LIG         0.0600 
     54 H151       92.8914   99.6572  -43.6459 H         1 LIG         0.0600 
     55 H152       93.5940  100.2489  -45.1667 H         1 LIG         0.0600 
     56 H161       92.0426   98.8943  -46.4323 H         1 LIG         0.0600 
     57 H162       92.8768   97.8725  -45.2879 H         1 LIG         0.0600 
     58 H08        88.6581   89.4287  -49.5159 H         1 LIG         0.1150 
     59 H09        87.4456   90.6992  -51.2549 H         1 LIG         0.1150 
     60 H17        88.4623   92.7287  -52.2417 H         1 LIG         0.1150 
     61 H18        90.7003   93.4808  -51.4872 H         1 LIG         0.1150 
     62 HXT        91.8971   92.2395  -49.7529 H         1 LIG         0.1150 
@<TRIPOS>BOND
     1    1    2 1    
     2    1   10 ar   
     3    1   14 ar   
     4    2    3 3    
     5    3    4 1    
     6    4    5 1    
     7    4   31 1    
     8    4   32 1    
     9    5    6 1    
    10    6   26 ar   
    11    6   30 ar   
    12    7   11 1    
    13    7   14 ar   
    14    7   16 ar   
    15    8   11 1    
    16    8   13 1    
    17    8   24 1    
    18    9   16 1    
    19    9   33 1    
    20   10   15 ar   
    21   10   34 1    
    22   11   35 1    
    23   11   36 1    
    24   12   18 1    
    25   12   19 1    
    26   12   21 1    
    27   12   37 1    
    28   13   17 1    
    29   13   38 1    
    30   13   39 1    
    31   14   40 1    
    32   15   16 ar   
    33   15   25 1    
    34   17   18 1    
    35   17   41 1    
    36   17   42 1    
    37   18   23 1    
    38   18   43 1    
    39   19   20 1    
    40   19   44 1    
    41   19   45 1    
    42   20   46 1    
    43   20   47 1    
    44   20   48 1    
    45   21   22 1    
    46   21   49 1    
    47   21   50 1    
    48   22   51 1    
    49   22   52 1    
    50   22   53 1    
    51   23   24 1    
    52   23   54 1    
    53   23   55 1    
    54   24   56 1    
    55   24   57 1    
    56   26   27 ar   
    57   26   58 1    
    58   27   28 ar   
    59   27   59 1    
    60   28   29 ar   
    61   28   60 1    
    62   29   30 ar   
    63   29   61 1    
    64   30   62 1    
@<TRIPOS>SUBSTRUCTURE
     1 LIG         1 GROUP             0       ****    0 ROOT    
