@<TRIPOS>MOLECULE
:1vso_ligand
38   38    1
SMALL
USER_CHARGES


@<TRIPOS>ATOM
      1 N          41.8390    5.0010    5.1840 N.4       1 LIG         0.2475 
      2 C          39.4930    5.8860    5.5700 C.3       1 LIG        -0.0050 
      3 O          41.0750    4.6780    2.6580 O.co2     1 LIG        -0.7225 
      4 C1         40.3370    4.7540    4.9780 C.3       1 LIG         0.0625 
      5 C2         40.0710    4.5890    3.4290 C.2       1 LIG         0.4450 
      6 O1         38.8910    4.3770    3.0650 O.co2     1 LIG        -0.7225 
      7 O2         39.4480    6.2390    9.2710 O.3       1 LIG        -0.1220 
      8 O3         38.0380    3.8840    7.1560 O.3       1 LIG        -0.3225 
      9 N1         38.6860    5.0620    9.0890 N.2       1 LIG        -0.4130 
     10 C3         40.6750    8.0160    8.2000 C.3       1 LIG         0.1150 
     11 C4         37.2820    2.9370    7.9810 C.3       1 LIG        -0.4355 
     12 C5         38.6710    4.8910    7.7880 C.2       1 LIG         0.5580 
     13 C6         39.3920    5.8970    7.0660 C.2       1 LIG        -0.3860 
     14 C7         39.8570    6.7270    8.0670 C.2       1 LIG         0.2330 
     15 C9         39.7510    9.0910    8.8210 C.3       1 LIG        -0.1800 
     16 C10        41.8670    7.7950    9.1260 C.3       1 LIG        -0.1800 
     17 C11        41.1810    8.5560    6.8690 C.3       1 LIG        -0.1800 
     18 P          36.2720    1.9120    6.8820 P.3       1 LIG         1.8579 
     19 O4         37.1590    1.1790    5.9410 O.co2     1 LIG        -1.1200 
     20 O5         35.4750    1.0470    7.8200 O.co2     1 LIG        -1.1200 
     21 O6         35.2950    2.8940    6.1530 O.co2     1 LIG        -1.1200 
     22 H1         42.3615    4.2328    4.7807 H         1 LIG         0.2100 
     23 H2         42.1056    5.8626    4.7264 H         1 LIG         0.2100 
     24 H3         42.0423    5.0587    6.1752 H         1 LIG         0.2100 
     25 HXT1       38.4796    5.8325    5.1704 H         1 LIG         0.0600 
     26 HXT2       39.8720    6.8330    5.1908 H         1 LIG         0.0600 
     27 H1         40.0796    3.8058    5.4513 H         1 LIG         0.0600 
     28 H41        36.6366    3.4697    8.6804 H         1 LIG         0.0800 
     29 H42        37.9744    2.3331    8.5683 H         1 LIG         0.0800 
     30 H91        40.2673   10.0448    8.9338 H         1 LIG         0.0600 
     31 H92        38.8714    9.2547    8.1985 H         1 LIG         0.0600 
     32 H93        39.3957    8.7998    9.8100 H         1 LIG         0.0600 
     33 H101       42.5851    8.6146    9.0990 H         1 LIG         0.0600 
     34 H102       41.5482    7.6656   10.1554 H         1 LIG         0.0600 
     35 H103       42.3604    6.8793    8.8710 H         1 LIG         0.0600 
     36 H111       41.7436    9.4727    7.0285 H         1 LIG         0.0600 
     37 H112       41.8251    7.8321    6.3714 H         1 LIG         0.0600 
     38 H113       40.3535    8.7837    6.2039 H         1 LIG         0.0600 
@<TRIPOS>BOND
     1    1    4 1    
     2    1   22 1    
     3    1   23 1    
     4    1   24 1    
     5    2    4 1    
     6    2   13 1    
     7    2   25 1    
     8    2   26 1    
     9    3    5 2    
    10    4    5 1    
    11    4   27 1    
    12    5    6 1    
    13    7    9 1    
    14    7   14 1    
    15    8   11 1    
    16    8   12 1    
    17    9   12 2    
    18   10   14 1    
    19   10   15 1    
    20   10   16 1    
    21   10   17 1    
    22   11   18 1    
    23   11   28 1    
    24   11   29 1    
    25   12   13 1    
    26   13   14 2    
    27   15   30 1    
    28   15   31 1    
    29   15   32 1    
    30   16   33 1    
    31   16   34 1    
    32   16   35 1    
    33   17   36 1    
    34   17   37 1    
    35   17   38 1    
    36   18   19 2    
    37   18   20 1    
    38   18   21 1    
@<TRIPOS>SUBSTRUCTURE
     1 LIG         1 GROUP             0       ****    0 ROOT    
