@<TRIPOS>MOLECULE
:3fcq_ligand
23   23    1
SMALL
USER_CHARGES


@<TRIPOS>ATOM
      1 O12        37.6510   42.4060   -3.3720 O.2       1 LIG        -0.4300 
      2 C11        36.7500   42.7090   -2.5950 C.2       1 LIG         0.5100 
      3 O1         35.6710   41.9040   -2.5740 O.3       1 LIG        -0.2150 
      4 C2         35.7260   40.7140   -3.2690 C.ar      1 LIG         0.1350 
      5 C7         35.8100   39.5460   -2.4890 C.ar      1 LIG        -0.1150 
      6 C1         35.8360   39.6720   -0.9660 C.3       1 LIG        -0.0650 
      7 C6         35.8660   38.3060   -3.1300 C.ar      1 LIG        -0.1150 
      8 C5         35.8450   38.2300   -4.5270 C.ar      1 LIG        -0.1150 
      9 C4         35.7620   39.3990   -5.3050 C.ar      1 LIG        -0.1150 
     10 C3         35.7020   40.6370   -4.6570 C.ar      1 LIG        -0.1150 
     11 C8         35.6120   41.9300   -5.5630 C.2       1 LIG         0.7150 
     12 O10        34.8350   42.8840   -5.1130 O.co2     1 LIG        -0.8000 
     13 O9         36.3630   41.8940   -6.6150 O.co2     1 LIG        -0.8000 
     14 C13        36.7080   43.9220   -1.7150 C.3       1 LIG        -0.1800 
     15 H11        35.8783   38.6985   -0.4777 H         1 LIG         0.0600 
     16 H12        36.6951   40.2555   -0.6379 H         1 LIG         0.0600 
     17 H13        34.9330   40.1917   -0.6578 H         1 LIG         0.0600 
     18 H6         35.9703   37.4178   -2.5304 H         1 LIG         0.1150 
     19 H5         35.8996   37.2659   -5.0108 H         1 LIG         0.1150 
     20 H4         35.7442   39.3312   -6.3832 H         1 LIG         0.1150 
     21 H131       35.7718   44.4613   -1.8618 H         1 LIG         0.0600 
     22 H132       36.7818   43.6239   -0.6709 H         1 LIG         0.0600 
     23 H133       37.5351   44.5932   -1.9464 H         1 LIG         0.0600 
@<TRIPOS>BOND
     1    1    2 2    
     2    2    3 1    
     3    2   14 1    
     4    3    4 1    
     5    4    5 ar   
     6    4   10 ar   
     7    5    6 1    
     8    5    7 ar   
     9    6   15 1    
    10    6   16 1    
    11    6   17 1    
    12    7    8 ar   
    13    7   18 1    
    14    8    9 ar   
    15    8   19 1    
    16    9   10 ar   
    17    9   20 1    
    18   10   11 1    
    19   11   12 2    
    20   11   13 1    
    21   14   21 1    
    22   14   22 1    
    23   14   23 1    
@<TRIPOS>SUBSTRUCTURE
     1 LIG         1 GROUP             0       ****    0 ROOT    
