@<TRIPOS>MOLECULE
:2wn9_ligand
41   43    1
SMALL
USER_CHARGES


@<TRIPOS>ATOM
      1 C7         30.2280   -6.5920   62.6450 C.2       1 LIG        -0.1150 
      2 C4         30.9340   -7.0840   63.8860 C.ar      1 LIG         0.0000 
      3 C3         30.6000   -8.3240   64.3910 C.ar      1 LIG         0.0850 
      4 O21        29.6330   -8.9900   63.6950 O.3       1 LIG        -0.2850 
      5 C22        29.1650  -10.3310   63.9660 C.3       1 LIG         0.1100 
      6 C2         31.2340   -8.8180   65.5450 C.ar      1 LIG        -0.1150 
      7 C5         31.9230   -6.3420   64.5230 C.ar      1 LIG        -0.1150 
      8 C6         32.5380   -6.8190   65.6690 C.ar      1 LIG        -0.1150 
      9 C1         32.2130   -8.0570   66.1800 C.ar      1 LIG         0.1500 
     10 O20        32.8390   -8.5060   67.3310 O.3       1 LIG        -0.5850 
     11 C8         29.9340   -5.2960   62.4020 C.2       1 LIG         0.0000 
     12 C13        30.2990   -4.1670   63.3450 C.3       1 LIG        -0.1200 
     13 C12        29.4730   -2.9140   63.1080 C.3       1 LIG        -0.1200 
     14 C11        29.5500   -2.5090   61.6510 C.3       1 LIG         0.2867 
     15 N10        29.0780   -3.6860   60.9320 N.pl3     1 LIG        -0.4232 
     16 C9         29.2950   -4.9260   61.1410 C.2       1 LIG         0.5365 
     17 C14        28.9180   -5.8840   60.0420 C.ar      1 LIG        -0.2920 
     18 C19        27.5920   -6.0490   59.6700 C.ar      1 LIG         0.4730 
     19 N18        27.2420   -6.8530   58.6610 N.ar      1 LIG        -0.6780 
     20 C17        28.1700   -7.5360   57.9760 C.ar      1 LIG         0.4730 
     21 C16        29.5370   -7.3990   58.3000 C.ar      1 LIG        -0.4470 
     22 C15        29.9110   -6.5710   59.3450 C.ar      1 LIG         0.2270 
     23 H7         29.9728   -7.3559   61.9256 H         1 LIG         0.1150 
     24 H221       28.3875  -10.6441   63.2772 H         1 LIG         0.0300 
     25 H222       29.9805  -11.0541   63.9408 H         1 LIG         0.0300 
     26 H223       28.7374  -10.2982   64.9638 H         1 LIG         0.0300 
     27 H2         30.9770   -9.7895   65.9335 H         1 LIG         0.1150 
     28 H5         32.3007   -5.4154   64.1333 H         1 LIG         0.1150 
     29 H6         33.3030   -6.2257   66.1488 H         1 LIG         0.1150 
     30 HO20       32.5951   -9.3958   67.5693 H         1 LIG         0.4350 
     31 H131       31.3395   -3.8902   63.1776 H         1 LIG         0.0600 
     32 H132       30.1725   -4.4553   64.3859 H         1 LIG         0.0600 
     33 H121       29.8324   -2.1028   63.7412 H         1 LIG         0.0600 
     34 H122       28.4485   -3.1072   63.4099 H         1 LIG         0.0600 
     35 H111       30.5577   -2.2741   61.3062 H         1 LIG         0.0600 
     36 H112       28.8740   -1.6887   61.4156 H         1 LIG         0.0600 
     37 HN10       28.6549   -3.4740   60.0331 H         1 LIG         0.4800 
     38 H19        26.8159   -5.5305   60.1924 H         1 LIG         0.0120 
     39 H17        27.8340   -8.1757   57.1731 H         1 LIG         0.0120 
     40 H16        30.2846   -7.9418   57.7407 H         1 LIG         0.1550 
     41 H15        30.9548   -6.4537   59.5993 H         1 LIG         0.0650 
@<TRIPOS>BOND
     1    1    2 1    
     2    1   11 2    
     3    1   23 1    
     4    2    3 ar   
     5    2    7 ar   
     6    3    4 1    
     7    3    6 ar   
     8    4    5 1    
     9    5   24 1    
    10    5   25 1    
    11    5   26 1    
    12    6    9 ar   
    13    6   27 1    
    14    7    8 ar   
    15    7   28 1    
    16    8    9 ar   
    17    8   29 1    
    18    9   10 1    
    19   10   30 1    
    20   11   12 1    
    21   11   16 1    
    22   12   13 1    
    23   12   31 1    
    24   12   32 1    
    25   13   14 1    
    26   13   33 1    
    27   13   34 1    
    28   14   15 1    
    29   14   35 1    
    30   14   36 1    
    31   15   16 2    
    32   15   37 1    
    33   16   17 1    
    34   17   18 ar   
    35   17   22 ar   
    36   18   19 ar   
    37   18   38 1    
    38   19   20 ar   
    39   20   21 ar   
    40   20   39 1    
    41   21   22 ar   
    42   21   40 1    
    43   22   41 1    
@<TRIPOS>SUBSTRUCTURE
     1 LIG         1 GROUP             0       ****    0 ROOT    
