@<TRIPOS>MOLECULE
:2qbp_ligand
60   63    1
SMALL
USER_CHARGES


@<TRIPOS>ATOM
      1 S1         44.5640   14.2390    0.6740 S.3       1 LIG         0.0328 
      2 C2         44.7660   15.6490    1.7560 C.2       1 LIG        -0.1787 
      3 C3         45.6900   15.3960    2.6670 C.2       1 LIG         0.1473 
      4 C4         46.2550   14.0410    2.5740 C.2       1 LIG         0.2473 
      5 C5         45.8210   13.2870    1.5520 C.2       1 LIG        -0.1709 
      6 C6         44.0600   16.8790    1.4690 C.2       1 LIG         0.7150 
      7 O7         43.5980   16.8930    0.3080 O.co2     1 LIG        -0.8000 
      8 O8         43.9340   17.8230    2.2800 O.co2     1 LIG        -0.8000 
      9 C9         46.1250   11.9050    1.1290 C.ar      1 LIG         0.1072 
     10 C10        47.4420   11.3150    1.3100 C.ar      1 LIG        -0.1150 
     11 C11        47.6400    9.9460    0.9420 C.ar      1 LIG         0.2000 
     12 C12        46.5390    9.1680    0.3780 C.ar      1 LIG        -0.1150 
     13 C13        45.2230    9.7500    0.1790 C.ar      1 LIG        -0.1150 
     14 C14        45.0420   11.1270    0.5390 C.ar      1 LIG        -0.1150 
     15 BR19       47.3890   13.4840    3.9420 Br        1 LIG        -0.2000 
     16 O20        45.9800   16.2840    3.6070 O.3       1 LIG        -0.3000 
     17 C21        47.1930   16.9880    3.4380 C.3       1 LIG         0.1400 
     18 C22        47.4320   17.6890    4.7000 C.2       1 LIG         0.6000 
     19 O25        48.5780   18.1510    4.8510 O.co2     1 LIG        -0.8000 
     20 O26        46.5110   17.7930    5.5420 O.co2     1 LIG        -0.8000 
     21 N29        48.9040    9.4960    1.1630 N.pl3     1 LIG        -0.7800 
     22 C30        49.1900    8.1380    1.5130 C.3       1 LIG         0.1400 
     23 C31        50.7090    7.9840    1.5980 C.3       1 LIG        -0.0833 
     24 C32        51.1460    6.6380    2.1280 C.3       1 LIG         0.0588 
     25 N33        50.3910    6.3890    3.3570 N.pl3     1 LIG        -0.5376 
     26 C34        48.9270    6.4400    3.3730 C.3       1 LIG         0.0588 
     27 C35        48.4990    7.7770    2.8260 C.3       1 LIG        -0.0833 
     28 S46        51.1020    5.4460    4.5910 S.o2      1 LIG         0.9349 
     29 O47        50.2210    5.5670    5.7300 O.2       1 LIG        -0.4680 
     30 O48        52.4790    5.8920    4.6940 O.2       1 LIG        -0.4680 
     31 C49        50.8960    3.7760    3.9330 C.3       1 LIG        -0.2205 
     32 C50        51.2570    2.7890    5.0020 C.ar      1 LIG        -0.1150 
     33 C53        52.6630    2.4580    5.1260 C.ar      1 LIG        -0.1150 
     34 C54        53.0480    1.5950    6.2220 C.ar      1 LIG        -0.1150 
     35 C55        52.0250    1.0640    7.1210 C.ar      1 LIG        -0.1150 
     36 C56        50.6230    1.4160    6.9910 C.ar      1 LIG        -0.1150 
     37 C57        50.2150    2.2910    5.9050 C.ar      1 LIG        -0.1150 
     38 H10        48.2448   11.8990    1.7292 H         1 LIG         0.1150 
     39 H12        46.7009    8.1373    0.1013 H         1 LIG         0.1150 
     40 H13        44.4122    9.1682   -0.2336 H         1 LIG         0.1150 
     41 H14        44.0612   11.5588    0.4091 H         1 LIG         0.1150 
     42 H211       47.1008   17.7086    2.6244 H         1 LIG         0.0300 
     43 H212       48.0257   16.3195    3.2140 H         1 LIG         0.0300 
     44 HN29       49.5414   10.1671    1.5689 H         1 LIG         0.3800 
     45 H30        48.8226    7.4802    0.7245 H         1 LIG         0.0600 
     46 H311       51.1139    8.7531    2.2585 H         1 LIG         0.0600 
     47 H312       51.1608    8.1565    0.6204 H         1 LIG         0.0600 
     48 H321       52.2196    6.6375    2.3158 H         1 LIG         0.0733 
     49 H322       50.9344    5.8458    1.4092 H         1 LIG         0.0733 
     50 H341       48.4971    6.3198    4.3654 H         1 LIG         0.0733 
     51 H342       48.5352    5.6316    2.7546 H         1 LIG         0.0733 
     52 H351       47.4158    7.7788    2.7059 H         1 LIG         0.0600 
     53 H352       48.7232    8.5402    3.5740 H         1 LIG         0.0600 
     54 H491       51.5249    3.6588    3.0506 H         1 LIG         0.1950 
     55 H492       49.8575    3.6405    3.6311 H         1 LIG         0.1950 
     56 H53        53.4054    2.8643    4.4545 H         1 LIG         0.1150 
     57 H54        54.0853    1.3291    6.3657 H         1 LIG         0.1150 
     58 H55        52.3615    0.4122    7.9022 H         1 LIG         0.1150 
     59 H56        49.8905    1.0273    7.6824 H         1 LIG         0.1150 
     60 H57        49.1811    2.5818    5.7877 H         1 LIG         0.1150 
@<TRIPOS>BOND
     1    1    2 1    
     2    1    5 1    
     3    2    3 2    
     4    2    6 1    
     5    3    4 1    
     6    3   16 1    
     7    4    5 2    
     8    4   15 1    
     9    5    9 1    
    10    6    7 2    
    11    6    8 1    
    12    9   10 ar   
    13    9   14 ar   
    14   10   11 ar   
    15   10   38 1    
    16   11   12 ar   
    17   11   21 1    
    18   12   13 ar   
    19   12   39 1    
    20   13   14 ar   
    21   13   40 1    
    22   14   41 1    
    23   16   17 1    
    24   17   18 1    
    25   17   42 1    
    26   17   43 1    
    27   18   19 2    
    28   18   20 1    
    29   21   22 1    
    30   21   44 1    
    31   22   23 1    
    32   22   27 1    
    33   22   45 1    
    34   23   24 1    
    35   23   46 1    
    36   23   47 1    
    37   24   25 1    
    38   24   48 1    
    39   24   49 1    
    40   25   26 1    
    41   25   28 1    
    42   26   27 1    
    43   26   50 1    
    44   26   51 1    
    45   27   52 1    
    46   27   53 1    
    47   28   29 2    
    48   28   30 2    
    49   28   31 1    
    50   31   32 1    
    51   31   54 1    
    52   31   55 1    
    53   32   33 ar   
    54   32   37 ar   
    55   33   34 ar   
    56   33   56 1    
    57   34   35 ar   
    58   34   57 1    
    59   35   36 ar   
    60   35   58 1    
    61   36   37 ar   
    62   36   59 1    
    63   37   60 1    
@<TRIPOS>SUBSTRUCTURE
     1 LIG         1 GROUP             0       ****    0 ROOT    
