@<TRIPOS>MOLECULE
:3qqs_ligand
28   29    1
SMALL
USER_CHARGES


@<TRIPOS>ATOM
      1 OAA        30.7020   -4.7710   26.9290 O.co2     1 LIG        -0.8000 
      2 OAB        26.9160   -7.3360   28.9720 O.co2     1 LIG        -0.8000 
      3 OAC        31.5540   -5.2870   24.9710 O.co2     1 LIG        -0.8000 
      4 OAD        28.3070   -5.8560   28.1030 O.co2     1 LIG        -0.8000 
      5 CAE        34.0030   -8.3060   28.0840 C.ar      1 LIG        -0.1150 
      6 CAF        30.5960   -7.5280   32.2850 C.ar      1 LIG        -0.1150 
      7 CAG        34.3210   -7.8160   26.8240 C.ar      1 LIG        -0.1150 
      8 CAH        29.2120   -7.6090   32.4320 C.ar      1 LIG        -0.1150 
      9 CAI        32.8480   -7.8860   28.7450 C.ar      1 LIG        -0.1150 
     10 CAJ        31.1470   -7.1650   31.0600 C.ar      1 LIG        -0.1150 
     11 CAK        33.4800   -6.8850   26.2210 C.ar      1 LIG        -0.1150 
     12 CAL        28.3990   -7.3340   31.3410 C.ar      1 LIG        -0.1150 
     13 NAM        30.8630   -6.5200   28.7580 N.pl3     1 LIG        -0.7800 
     14 CAN        31.4480   -5.4470   26.2010 C.2       1 LIG         0.7150 
     15 CAO        27.9900   -6.6880   28.9760 C.2       1 LIG         0.7150 
     16 CAP        31.9930   -6.9590   28.1520 C.ar      1 LIG         0.2000 
     17 CAQ        30.3420   -6.8890   29.9530 C.ar      1 LIG         0.2000 
     18 CAR        32.3270   -6.4740   26.8790 C.ar      1 LIG        -0.1150 
     19 CAS        28.9540   -6.9630   30.1210 C.ar      1 LIG        -0.1150 
     20 HAE        34.6499   -9.0473   28.5157 H         1 LIG         0.1150 
     21 HAF        31.2357   -7.7174   33.1327 H         1 LIG         0.1150 
     22 HAG        35.2187   -8.1472   26.3252 H         1 LIG         0.1150 
     23 HAH        28.7819   -7.8865   33.3821 H         1 LIG         0.1150 
     24 HAI        32.6519   -8.3987   29.6660 H         1 LIG         0.1150 
     25 HAJ        32.2133   -7.0052   31.0414 H         1 LIG         0.1150 
     26 HAK        33.7386   -6.4965   25.2467 H         1 LIG         0.1150 
     27 HAL        27.3278   -7.4018   31.4660 H         1 LIG         0.1150 
     28 HNAM       30.2506   -5.9645   28.1621 H         1 LIG         0.3800 
@<TRIPOS>BOND
     1    1   14 2    
     2    2   15 2    
     3    3   14 1    
     4    4   15 1    
     5    5    7 ar   
     6    5    9 ar   
     7    5   20 1    
     8    6    8 ar   
     9    6   10 ar   
    10    6   21 1    
    11    7   11 ar   
    12    7   22 1    
    13    8   12 ar   
    14    8   23 1    
    15    9   16 ar   
    16    9   24 1    
    17   10   17 ar   
    18   10   25 1    
    19   11   18 ar   
    20   11   26 1    
    21   12   19 ar   
    22   12   27 1    
    23   13   16 1    
    24   13   17 1    
    25   13   28 1    
    26   14   18 1    
    27   15   19 1    
    28   16   18 ar   
    29   17   19 ar   
@<TRIPOS>SUBSTRUCTURE
     1 LIG         1 GROUP             0       ****    0 ROOT    
