@<TRIPOS>MOLECULE
:2zda_ligand
58   60    1
SMALL
USER_CHARGES


@<TRIPOS>ATOM
      1 N1         18.5340  -13.4950   21.7020 N.am      1 LIG        -0.1400 
      2 C1         18.4020  -12.1880   21.1060 C.3       1 LIG         0.0100 
      3 C7         17.0550  -12.0990   20.4110 C.2       1 LIG         0.5000 
      4 O22        16.6070  -13.0590   19.7980 O.2       1 LIG        -0.5000 
      5 N23        16.4400  -10.8940   20.4880 N.am      1 LIG        -0.5000 
      6 C24        15.1610  -10.8260   19.7490 C.3       1 LIG         0.1950 
      7 C25        14.0560  -10.8140   20.8210 C.ar      1 LIG         0.0170 
      8 C26        13.6330  -12.0110   21.3850 C.ar      1 LIG        -0.1060 
      9 C27        12.6360  -12.0280   22.3570 C.ar      1 LIG        -0.0900 
     10 C28        12.0380  -10.8380   22.7830 C.ar      1 LIG        -0.1190 
     11 C21        10.8850  -10.8290   23.9030 C.2       1 LIG         0.8270 
     12 N46        10.5950   -9.6970   24.5280 N.pl3     1 LIG        -0.8850 
     13 N47        10.2350  -11.9340   24.1950 N.pl3     1 LIG        -0.8850 
     14 C29        12.4720   -9.6480   22.2100 C.ar      1 LIG        -0.0900 
     15 C30        13.4720   -9.6230   21.2350 C.ar      1 LIG        -0.1060 
     16 C2         19.4930  -12.2580   19.9960 C.3       1 LIG        -0.1200 
     17 C3         20.5540  -13.1510   20.6840 C.3       1 LIG        -0.1200 
     18 C4         19.7150  -14.2790   21.3400 C.3       1 LIG        -0.0500 
     19 C14        17.6420  -13.9000   22.6520 C.2       1 LIG         0.5000 
     20 C5         17.7070  -15.2630   23.2930 C.3       1 LIG         0.2500 
     21 N13        16.4070  -15.9690   23.2170 N.4       1 LIG        -0.3000 
     22 C33        18.2000  -15.1780   24.7660 C.3       1 LIG        -0.0050 
     23 O32        16.7470  -13.1380   23.0070 O.2       1 LIG        -0.5000 
     24 C6         19.6330  -14.6780   24.8320 C.ar      1 LIG        -0.1150 
     25 C8         20.7020  -15.4890   24.4400 C.ar      1 LIG        -0.1150 
     26 C9         22.0080  -15.0060   24.5090 C.ar      1 LIG        -0.1150 
     27 C10        22.2700  -13.7180   24.9670 C.ar      1 LIG        -0.1150 
     28 C11        21.1970  -12.9070   25.3620 C.ar      1 LIG        -0.1150 
     29 C12        19.8990  -13.3910   25.2910 C.ar      1 LIG        -0.1150 
     30 H1         18.5771  -11.3908   21.8294 H         1 LIG         0.0600 
     31 HN23       16.8130  -10.1001   20.9949 H         1 LIG         0.3000 
     32 H241       14.9774  -11.5250   18.9308 H         1 LIG         0.0600 
     33 H242       15.0612   -9.8450   19.3911 H         1 LIG         0.0600 
     34 H26        14.0833  -12.9414   21.0710 H         1 LIG         0.1410 
     35 H27        12.3322  -12.9748   22.7795 H         1 LIG         0.1290 
     36 H461        9.7678   -9.6517   25.1207 H         1 LIG         0.4455 
     37 H462       11.1240   -8.8595   24.3390 H         1 LIG         0.4455 
     38 H471        9.4349  -11.8916   24.8236 H         1 LIG         0.4455 
     39 H472       10.4677  -12.8136   23.7530 H         1 LIG         0.4455 
     40 H29        12.0281   -8.7118   22.5110 H         1 LIG         0.1290 
     41 H30        13.7937   -8.6913   20.8029 H         1 LIG         0.1410 
     42 H21        19.8851  -11.2755   19.7324 H         1 LIG         0.0600 
     43 H22        19.1477  -12.7395   19.0793 H         1 LIG         0.0600 
     44 H31        21.1091  -12.5884   21.4362 H         1 LIG         0.0600 
     45 H32        21.2534  -13.5436   19.9554 H         1 LIG         0.0600 
     46 H41        19.4470  -15.0506   20.6180 H         1 LIG         0.0600 
     47 H42        20.2653  -14.7254   22.1530 H         1 LIG         0.0600 
     48 H5         18.3845  -15.9113   22.7401 H         1 LIG         0.0600 
     49 H131       16.4887  -16.8864   23.6303 H         1 LIG         0.3300 
     50 H132       15.7108  -15.4289   23.7205 H         1 LIG         0.3300 
     51 H133       16.1253  -16.0526   22.2508 H         1 LIG         0.3300 
     52 H331       18.1640  -16.1633   25.2328 H         1 LIG         0.0600 
     53 H332       17.5460  -14.5369   25.3600 H         1 LIG         0.0600 
     54 H8         20.5223  -16.4926   24.0833 H         1 LIG         0.1150 
     55 H9         22.8282  -15.6377   24.2010 H         1 LIG         0.1150 
     56 H10        23.2806  -13.3414   25.0029 H         1 LIG         0.1150 
     57 H11        21.3773  -11.9056   25.7229 H         1 LIG         0.1150 
     58 H12        19.0905  -12.7578   25.6114 H         1 LIG         0.1150 
@<TRIPOS>BOND
     1    1    2 1    
     2    1   18 1    
     3    1   19 am   BACKBONE|DICT|INTERRES
     4    2    3 1    
     5    2   16 1    
     6    2   30 1    
     7    3    4 2    
     8    3    5 am   BACKBONE|DICT|INTERRES
     9    5    6 1    
    10    5   31 1    
    11    6    7 1    
    12    6   32 1    
    13    6   33 1    
    14    7    8 ar   
    15    7   15 ar   
    16    8    9 ar   
    17    8   34 1    
    18    9   10 ar   
    19    9   35 1    
    20   10   11 1    
    21   10   14 ar   
    22   11   12 2    
    23   11   13 1    
    24   12   36 1    
    25   12   37 1    
    26   13   38 1    
    27   13   39 1    
    28   14   15 ar   
    29   14   40 1    
    30   15   41 1    
    31   16   17 1    
    32   16   42 1    
    33   16   43 1    
    34   17   18 1    
    35   17   44 1    
    36   17   45 1    
    37   18   46 1    
    38   18   47 1    
    39   19   20 1    
    40   19   23 2    
    41   20   21 1    
    42   20   22 1    
    43   20   48 1    
    44   21   49 1    
    45   21   50 1    
    46   21   51 1    
    47   22   24 1    
    48   22   52 1    
    49   22   53 1    
    50   24   25 ar   
    51   24   29 ar   
    52   25   26 ar   
    53   25   54 1    
    54   26   27 ar   
    55   26   55 1    
    56   27   28 ar   
    57   27   56 1    
    58   28   29 ar   
    59   28   57 1    
    60   29   58 1    
@<TRIPOS>SUBSTRUCTURE
     1 LIG         1 GROUP             0       ****    0 ROOT    
