@<TRIPOS>MOLECULE
:2zcq_ligand
42   43    1
SMALL
USER_CHARGES


@<TRIPOS>ATOM
      1 CAL        15.0650   55.4960   39.8510 C.ar      1 LIG        -0.1150 
      2 CAH        14.8050   56.4450   40.8430 C.ar      1 LIG        -0.1150 
      3 CAG        13.9360   56.1490   41.8870 C.ar      1 LIG        -0.1150 
      4 CAI        13.3240   54.9060   41.9490 C.ar      1 LIG        -0.1150 
      5 CAM        13.5840   53.9560   40.9620 C.ar      1 LIG        -0.1150 
      6 CAU        14.4480   54.2580   39.9150 C.ar      1 LIG         0.0850 
      7 OAS        14.5500   53.3870   38.8700 O.3       1 LIG        -0.1700 
      8 CAV        15.6130   52.5420   38.8920 C.ar      1 LIG         0.0850 
      9 CAO        15.9990   51.9690   37.6820 C.ar      1 LIG        -0.1150 
     10 CAN        16.2330   52.1440   40.0700 C.ar      1 LIG        -0.1150 
     11 CAJ        17.2260   51.1730   40.0300 C.ar      1 LIG        -0.1150 
     12 CAK        17.6020   50.5940   38.8200 C.ar      1 LIG        -0.1150 
     13 CAT        16.9830   50.9950   37.6410 C.ar      1 LIG        -0.1150 
     14 CAQ        17.3310   50.3430   36.2980 C.3       1 LIG        -0.0050 
     15 CAP        18.4450   51.1010   35.5720 C.3       1 LIG        -0.1200 
     16 CAR        19.7000   51.1160   36.4440 C.3       1 LIG        -0.0086 
     17 CAW        20.9210   51.6820   35.7130 C.3       1 LIG        -0.5508 
     18 PAX        21.3180   50.6870   34.2190 P.3       1 LIG         1.3425 
     19 OAB        22.8210   51.0640   33.7840 O.co2     1 LIG        -0.9700 
     20 OAC        21.3420   49.1510   34.7060 O.3       1 LIG        -0.6225 
     21 OAA        20.3500   50.9090   33.1190 O.co2     1 LIG        -0.9700 
     22 SAY        22.3510   51.7060   36.8530 S.3       1 LIG         1.4537 
     23 OAF        23.5260   52.0920   36.1330 O.co2     1 LIG        -0.7664 
     24 OAE        22.5580   50.3410   37.4350 O.co2     1 LIG        -0.7664 
     25 OAD        22.0820   52.6710   37.9740 O.co2     1 LIG        -0.7664 
     26 HAL        15.7112   55.7412   39.0209 H         1 LIG         0.1150 
     27 HAH        15.2655   57.4201   40.7886 H         1 LIG         0.1150 
     28 HAG        13.7286   56.8912   42.6443 H         1 LIG         0.1150 
     29 HAI        12.6244   54.6861   42.7411 H         1 LIG         0.1150 
     30 HAM        13.0765   53.0028   40.9817 H         1 LIG         0.1150 
     31 HAO        15.4991   52.2638   36.7706 H         1 LIG         0.1150 
     32 HAN        15.9222   52.5240   41.0263 H         1 LIG         0.1150 
     33 HAJ        17.6889   50.8466   40.9488 H         1 LIG         0.1150 
     34 HAK        18.3573   49.8225   38.8069 H         1 LIG         0.1150 
     35 HAQ1       16.4289   50.3073   35.6884 H         1 LIG         0.0600 
     36 HAQ2       17.6157   49.3100   36.4470 H         1 LIG         0.0600 
     37 HAP1       18.1386   52.1086   35.2878 H         1 LIG         0.0600 
     38 HAP2       18.6213   50.5278   34.6730 H         1 LIG         0.0600 
     39 HAR1       19.8918   50.1738   36.9356 H         1 LIG         0.0600 
     40 HAR2       19.5171   51.7988   37.2735 H         1 LIG         0.0600 
     41 HAW        20.7279   52.7106   35.4087 H         1 LIG         0.1950 
     42 HOAC       20.6581   49.2041   35.3182 H         1 LIG         0.3100 
@<TRIPOS>BOND
     1    1    2 ar   
     2    1    6 ar   
     3    1   26 1    
     4    2    3 ar   
     5    2   27 1    
     6    3    4 ar   
     7    3   28 1    
     8    4    5 ar   
     9    4   29 1    
    10    5    6 ar   
    11    5   30 1    
    12    6    7 1    
    13    7    8 1    
    14    8    9 ar   
    15    8   10 ar   
    16    9   13 ar   
    17    9   31 1    
    18   10   11 ar   
    19   10   32 1    
    20   11   12 ar   
    21   11   33 1    
    22   12   13 ar   
    23   12   34 1    
    24   13   14 1    
    25   14   15 1    
    26   14   35 1    
    27   14   36 1    
    28   15   16 1    
    29   15   37 1    
    30   15   38 1    
    31   16   17 1    
    32   16   39 1    
    33   16   40 1    
    34   17   18 1    
    35   17   22 1    
    36   17   41 1    
    37   18   19 2    
    38   18   20 1    
    39   18   21 1    
    40   20   42 1    
    41   22   23 2    
    42   22   24 2    
    43   22   25 1    
@<TRIPOS>SUBSTRUCTURE
     1 LIG         1 GROUP             0       ****    0 ROOT    
