@<TRIPOS>MOLECULE
:3oe4_ligand
51   54    1
SMALL
USER_CHARGES


@<TRIPOS>ATOM
      1 C1         20.3680  -30.8330   13.2990 C.3       1 LIG         0.2050 
      2 C2         19.0550  -31.5850   13.4000 C.3       1 LIG         0.2050 
      3 C3         17.9480  -30.5060   13.4060 C.3       1 LIG         0.2225 
      4 O4         18.5380  -29.4770   12.5630 O.3       1 LIG        -0.4000 
      5 C5         19.9190  -29.6990   12.2860 C.3       1 LIG         0.2390 
      6 C6         20.1120  -30.2180   10.9170 C.2       1 LIG        -0.1840 
      7 N7         16.7500  -30.9170   12.7460 N.pl3     1 LIG        -0.4022 
      8 O8         20.6790  -30.2280   14.5520 O.3       1 LIG        -0.6830 
      9 O9         18.8960  -32.3840   14.5710 O.3       1 LIG        -0.6830 
     10 C10        20.6060  -29.4750    9.9620 C.2       1 LIG        -0.1150 
     11 C11        16.5960  -31.4860   11.4470 C.ar      1 LIG         0.4010 
     12 N12        15.3130  -31.5890   11.1080 N.2       1 LIG        -0.6252 
     13 C13        20.8300  -29.9760    8.5590 C.3       1 LIG         0.0800 
     14 N14        21.8230  -29.2160    7.8310 N.am      1 LIG        -0.5000 
     15 C15        22.6290  -29.6950    6.8770 C.2       1 LIG         0.6150 
     16 C16        23.6650  -28.8720    6.2440 C.ar      1 LIG        -0.1150 
     17 C17        23.7050  -27.4560    6.4640 C.ar      1 LIG         0.1500 
     18 C18        24.7600  -26.7690    5.8440 C.ar      1 LIG         0.1500 
     19 C19        25.7270  -27.3360    5.0710 C.ar      1 LIG        -0.1150 
     20 C20        25.6740  -28.7630    4.9300 C.ar      1 LIG         0.0900 
     21 C21        24.6470  -29.4920    5.5110 C.ar      1 LIG        -0.1150 
     22 N22        26.6590  -29.3870    4.1400 N.pl3     1 LIG         0.6500 
     23 O23        22.7810  -26.7590    7.1430 O.3       1 LIG        -0.4600 
     24 O24        24.8110  -25.4100    6.0640 O.3       1 LIG        -0.4600 
     25 O25        22.5020  -30.8900    6.4760 O.2       1 LIG        -0.5000 
     26 O26        27.4260  -28.7540    3.4750 O.co2     1 LIG        -0.3700 
     27 O27        26.6000  -30.6250    4.1570 O.co2     1 LIG        -0.3700 
     28 C28        15.4830  -30.7070   13.2050 C.ar      1 LIG         0.7565 
     29 C29        14.5670  -31.1260   12.1690 C.ar      1 LIG         0.0380 
     30 C30        13.2220  -30.9850   12.3980 C.ar      1 LIG         0.3073 
     31 N31        12.7710  -30.4450   13.5460 N.ar      1 LIG        -0.7325 
     32 C32        13.6800  -30.0480   14.4920 C.ar      1 LIG         0.6093 
     33 N33        15.0100  -30.1620   14.3570 N.ar      1 LIG        -0.7701 
     34 H1         21.2055  -31.4408   12.9539 H         1 LIG         0.0600 
     35 H2         18.9408  -32.2342   12.5326 H         1 LIG         0.0600 
     36 H3         17.6613  -30.1170   14.3785 H         1 LIG         0.1000 
     37 H5         20.4829  -28.7756   12.4289 H         1 LIG         0.0300 
     38 H6         19.8328  -31.2403   10.7122 H         1 LIG         0.1150 
     39 HO8        19.9067  -29.8025   14.9097 H         1 LIG         0.4180 
     40 HO9        18.8864  -31.8148   15.3365 H         1 LIG         0.4180 
     41 H10        20.8656  -28.4442   10.1575 H         1 LIG         0.1150 
     42 H11        17.4244  -31.6848   10.7908 H         1 LIG         0.1197 
     43 H131       19.9075  -29.9968    7.9990 H         1 LIG         0.0600 
     44 H132       21.1432  -31.0190    8.6359 H         1 LIG         0.0600 
     45 HN14       21.9721  -28.2622    8.1291 H         1 LIG         0.3000 
     46 H19        26.5353  -26.7546    4.6665 H         1 LIG         0.1150 
     47 H21        24.6131  -30.5642    5.3827 H         1 LIG         0.1150 
     48 HO23       22.9600  -25.8427    7.2791 H         1 LIG         0.3100 
     49 HO24       25.3615  -25.0093    5.4149 H         1 LIG         0.3100 
     50 H30        12.4900  -31.2851   11.6632 H         1 LIG         0.1202 
     51 H32        13.3027  -29.6035   15.4007 H         1 LIG         0.0555 
@<TRIPOS>BOND
     1    1    2 1    
     2    1    5 1    
     3    1    8 1    
     4    1   34 1    
     5    2    3 1    
     6    2    9 1    
     7    2   35 1    
     8    3    4 1    
     9    3    7 1    
    10    3   36 1    
    11    4    5 1    
    12    5    6 1    
    13    5   37 1    
    14    6   10 2    
    15    6   38 1    
    16    7   11 ar   
    17    7   28 ar   
    18    8   39 1    
    19    9   40 1    
    20   10   13 1    
    21   10   41 1    
    22   11   12 ar   
    23   11   42 1    
    24   12   29 ar   
    25   13   14 1    
    26   13   43 1    
    27   13   44 1    
    28   14   15 am   BACKBONE|DICT|INTERRES
    29   14   45 1    
    30   15   16 1    
    31   15   25 2    
    32   16   17 ar   
    33   16   21 ar   
    34   17   18 ar   
    35   17   23 1    
    36   18   19 ar   
    37   18   24 1    
    38   19   20 ar   
    39   19   46 1    
    40   20   21 ar   
    41   20   22 1    
    42   21   47 1    
    43   22   26 1    
    44   22   27 2    
    45   23   48 1    
    46   24   49 1    
    47   28   29 ar   
    48   28   33 ar   
    49   29   30 ar   
    50   30   31 ar   
    51   30   50 1    
    52   31   32 ar   
    53   32   33 ar   
    54   32   51 1    
@<TRIPOS>SUBSTRUCTURE
     1 LIG         1 GROUP             0       ****    0 ROOT    
