@<TRIPOS>MOLECULE
:3ueu_ligand
37   36    1
SMALL
USER_CHARGES


@<TRIPOS>ATOM
      1 O1         -1.2720    3.8380   19.2090 O.co2     1 LIG        -0.8000 
      2 O2         -0.2330    5.7140   19.5840 O.co2     1 LIG        -0.8000 
      3 C1         -1.2780    5.0930   19.2850 C.2       1 LIG         0.7000 
      4 C2         -2.5650    5.8580   18.9950 C.3       1 LIG        -0.2200 
      5 C3         -2.6420    7.2130   19.7060 C.3       1 LIG        -0.1200 
      6 C4         -3.2850    8.2950   18.8260 C.3       1 LIG        -0.1200 
      7 C5         -2.5580    9.6320   18.9390 C.3       1 LIG        -0.1200 
      8 C6         -3.2940   10.7800   18.2650 C.3       1 LIG        -0.1200 
      9 C7         -2.6480   12.1070   18.6760 C.3       1 LIG        -0.1200 
     10 C8         -3.3440   13.3150   18.0570 C.3       1 LIG        -0.1200 
     11 C9         -2.3690   14.4290   17.7340 C.3       1 LIG        -0.1200 
     12 C10        -2.9890   15.8240   17.8320 C.3       1 LIG        -0.1200 
     13 C11        -3.5540   16.2650   16.4980 C.3       1 LIG        -0.1200 
     14 C12        -3.7430   17.7620   16.4840 C.3       1 LIG        -0.1800 
     15 H21        -3.4287    5.2460   19.2571 H         1 LIG         0.0600 
     16 H22        -2.5925    5.9786   17.9121 H         1 LIG         0.0600 
     17 H31        -1.6583    7.5694   20.0098 H         1 LIG         0.0600 
     18 H32        -3.1994    7.1088   20.6380 H         1 LIG         0.0600 
     19 H41        -4.2583    8.4739   19.2336 H         1 LIG         0.0600 
     20 H42        -3.3953    8.0004   17.7840 H         1 LIG         0.0600 
     21 H51        -1.5519    9.5441   18.5265 H         1 LIG         0.0600 
     22 H52        -2.4388    9.8686   19.9963 H         1 LIG         0.0600 
     23 H61        -4.3468   10.7804   18.5516 H         1 LIG         0.0600 
     24 H62        -3.2505   10.6611   17.1850 H         1 LIG         0.0600 
     25 H71        -1.6048   12.0769   18.3619 H         1 LIG         0.0600 
     26 H72        -2.6329   12.2146   19.7609 H         1 LIG         0.0600 
     27 H81        -4.1895   13.6438   18.6330 H         1 LIG         0.0600 
     28 H82        -3.7891   13.0182   17.1064 H         1 LIG         0.0600 
     29 H91        -1.8742   14.2653   16.7808 H         1 LIG         0.0600 
     30 H92        -1.5714   14.4032   18.4785 H         1 LIG         0.0600 
     31 H101       -2.2040   16.5178   18.1371 H         1 LIG         0.0600 
     32 H102       -3.7545   15.8697   18.5942 H         1 LIG         0.0600 
     33 H111       -4.5013   15.7905   16.3000 H         1 LIG         0.0600 
     34 H112       -2.8733   15.9874   15.6973 H         1 LIG         0.0600 
     35 H121       -4.0702   18.1022   15.5012 H         1 LIG         0.0600 
     36 H122       -4.5101   18.0462   17.2016 H         1 LIG         0.0600 
     37 H123       -2.8322   18.3011   16.7347 H         1 LIG         0.0600 
@<TRIPOS>BOND
     1    1    3 2    
     2    2    3 1    
     3    3    4 1    
     4    4    5 1    
     5    4   15 1    
     6    4   16 1    
     7    5    6 1    
     8    5   17 1    
     9    5   18 1    
    10    6    7 1    
    11    6   19 1    
    12    6   20 1    
    13    7    8 1    
    14    7   21 1    
    15    7   22 1    
    16    8    9 1    
    17    8   23 1    
    18    8   24 1    
    19    9   10 1    
    20    9   25 1    
    21    9   26 1    
    22   10   11 1    
    23   10   27 1    
    24   10   28 1    
    25   11   12 1    
    26   11   29 1    
    27   11   30 1    
    28   12   13 1    
    29   12   31 1    
    30   12   32 1    
    31   13   14 1    
    32   13   33 1    
    33   13   34 1    
    34   14   35 1    
    35   14   36 1    
    36   14   37 1    
@<TRIPOS>SUBSTRUCTURE
     1 LIG         1 GROUP             0       ****    0 ROOT    
