@<TRIPOS>MOLECULE
:3e92_ligand
47   50    1
SMALL
USER_CHARGES


@<TRIPOS>ATOM
      1 C26        48.9010   34.8130   30.4810 C.3       1 LIG        -0.0650 
      2 C23        37.1320   26.5140   36.2330 C.3       1 LIG        -0.1200 
      3 C22        38.2640   27.1710   36.9540 C.3       1 LIG        -0.1200 
      4 C19        38.5190   26.3570   35.7020 C.3       1 LIG         0.0625 
      5 C25        47.5280   34.8470   31.1690 C.2       1 LIG         0.4464 
      6 O21        46.6350   33.8930   30.9750 O.3       1 LIG        -0.3726 
      7 N24        46.9900   35.7430   32.0320 N.2       1 LIG        -0.3751 
      8 N20        45.8270   35.3620   32.3690 N.2       1 LIG        -0.3751 
      9 C18        45.5470   34.1890   31.7290 C.2       1 LIG         0.5614 
     10 C15        44.3010   33.4070   31.8360 C.ar      1 LIG         0.0000 
     11 C12        43.2130   33.8020   32.6200 C.ar      1 LIG        -0.1150 
     12 C6         42.0870   32.9840   32.6390 C.ar      1 LIG        -0.1150 
     13 C10        44.2100   32.2030   31.1160 C.ar      1 LIG        -0.1150 
     14 C5         43.0760   31.3710   31.1840 C.ar      1 LIG        -0.1150 
     15 C11        43.0360   30.0670   30.4250 C.3       1 LIG        -0.0650 
     16 C2         41.9900   31.7880   31.9470 C.ar      1 LIG         0.0000 
     17 C1         40.7500   30.9510   32.0470 C.ar      1 LIG         0.0000 
     18 C3         40.6450   30.0430   33.1170 C.ar      1 LIG        -0.1150 
     19 C7         39.5210   29.2010   33.2980 C.ar      1 LIG        -0.1150 
     20 C13        39.5490   28.2860   34.4810 C.2       1 LIG         0.6150 
     21 O17        40.4020   28.4830   35.3640 O.2       1 LIG        -0.5000 
     22 N16        38.5850   27.2970   34.6010 N.am      1 LIG        -0.4225 
     23 C14        38.4600   29.3230   32.3610 C.ar      1 LIG        -0.1150 
     24 C8         38.5450   30.2290   31.3010 C.ar      1 LIG        -0.1150 
     25 C4         39.6930   31.0460   31.1330 C.ar      1 LIG        -0.1150 
     26 C9         39.7830   32.0540   29.9890 C.3       1 LIG        -0.0650 
     27 H261       49.0961   35.7631   29.9856 H         1 LIG         0.0600 
     28 H262       49.6795   34.6166   31.2159 H         1 LIG         0.0600 
     29 H263       48.9254   34.0206   29.7328 H         1 LIG         0.0600 
     30 H231       36.4350   27.1609   35.7160 H         1 LIG         0.0600 
     31 H232       36.6800   25.6473   36.7118 H         1 LIG         0.0600 
     32 H221       38.5812   26.7274   37.8941 H         1 LIG         0.0600 
     33 H222       38.2766   28.2596   36.9396 H         1 LIG         0.0600 
     34 H19        38.9578   25.3657   35.6813 H         1 LIG         0.0600 
     35 H12        43.2384   34.7154   33.1959 H         1 LIG         0.1150 
     36 H6         41.2565   33.2816   33.2545 H         1 LIG         0.1150 
     37 H10        45.0481   31.8835   30.5128 H         1 LIG         0.1150 
     38 H111       42.0382   29.8011   30.0780 H         1 LIG         0.0600 
     39 H112       43.6604   30.1741   29.5414 H         1 LIG         0.0600 
     40 H113       43.4264   29.2539   31.0374 H         1 LIG         0.0600 
     41 H3         41.4774   29.9973   33.8047 H         1 LIG         0.1150 
     42 HN16       37.9311   27.1658   33.8386 H         1 LIG         0.3000 
     43 H14        37.5907   28.7021   32.4407 H         1 LIG         0.1150 
     44 H8         37.7259   30.3012   30.6005 H         1 LIG         0.1150 
     45 H91        38.8069   32.2129   29.5292 H         1 LIG         0.0600 
     46 H92        40.1433   33.0145   30.3352 H         1 LIG         0.0600 
     47 H93        40.4644   31.6931   29.2184 H         1 LIG         0.0600 
@<TRIPOS>BOND
     1    1    5 1    
     2    1   27 1    
     3    1   28 1    
     4    1   29 1    
     5    2    3 1    
     6    2    4 1    
     7    2   30 1    
     8    2   31 1    
     9    3    4 1    
    10    3   32 1    
    11    3   33 1    
    12    4   22 1    
    13    4   34 1    
    14    5    6 1    
    15    5    7 2    
    16    6    9 1    
    17    7    8 1    
    18    8    9 2    
    19    9   10 1    
    20   10   11 ar   
    21   10   13 ar   
    22   11   12 ar   
    23   11   35 1    
    24   12   16 ar   
    25   12   36 1    
    26   13   14 ar   
    27   13   37 1    
    28   14   15 1    
    29   14   16 ar   
    30   15   38 1    
    31   15   39 1    
    32   15   40 1    
    33   16   17 1    
    34   17   18 ar   
    35   17   25 ar   
    36   18   19 ar   
    37   18   41 1    
    38   19   20 1    
    39   19   23 ar   
    40   20   21 2    
    41   20   22 am   BACKBONE|DICT|INTERRES
    42   22   42 1    
    43   23   24 ar   
    44   23   43 1    
    45   24   25 ar   
    46   24   44 1    
    47   25   26 1    
    48   26   45 1    
    49   26   46 1    
    50   26   47 1    
@<TRIPOS>SUBSTRUCTURE
     1 LIG         1 GROUP             0       ****    0 ROOT    
