@<TRIPOS>MOLECULE
:1gpn_ligand
40   43    1
SMALL
USER_CHARGES


@<TRIPOS>ATOM
      1 C1          1.0680   68.7710   61.1630 C.ar      1 LIG         0.5567 
      2 O1          0.4400   69.2080   60.1960 O.2       1 LIG        -0.5000 
      3 N1          2.3530   68.2650   60.9830 N.pl3     1 LIG        -0.3513 
      4 C2          0.5440   68.7450   62.5170 C.ar      1 LIG        -0.1717 
      5 C3          1.3020   68.2450   63.5450 C.ar      1 LIG        -0.1150 
      6 C4          2.6350   67.7280   63.3560 C.ar      1 LIG         0.0000 
      7 C5          3.1490   67.7340   62.0130 C.ar      1 LIG         0.0513 
      8 C6          4.5200   67.2110   61.6300 C.3       1 LIG        -0.1200 
      9 C7          5.3120   66.5280   62.8520 C.3       1 LIG        -0.0600 
     10 C8          4.8890   65.0460   63.0240 C.2       1 LIG        -0.1150 
     11 C9          5.1250   69.4560   65.4310 C.3       1 LIG        -0.1200 
     12 C10         5.4320   68.7380   64.1060 C.3       1 LIG        -0.1200 
     13 C11         5.0240   67.2560   64.1870 C.3       1 LIG        -0.0600 
     14 C12         3.5160   67.1410   64.5690 C.3       1 LIG         0.2900 
     15 N2          3.2390   67.8790   65.8580 N.4       1 LIG        -0.2000 
     16 C13         3.1120   65.6420   64.7490 C.3       1 LIG        -0.1200 
     17 C14         3.8870   64.6480   63.8920 C.2       1 LIG         0.0000 
     18 C15         3.4650   63.2140   64.0870 C.3       1 LIG        -0.1800 
     19 C90         3.6510   69.3860   65.8010 C.3       1 LIG         0.1700 
     20 HN1         2.7524   68.2640   60.0525 H         1 LIG         0.3000 
     21 H2         -0.4518   69.1164   62.7119 H         1 LIG         0.1150 
     22 H3          0.8672   68.2331   64.5331 H         1 LIG         0.1150 
     23 H61         5.0961   68.0693   61.2833 H         1 LIG         0.0600 
     24 H62         4.4592   66.5428   60.7759 H         1 LIG         0.0600 
     25 H7          6.3757   66.5625   62.6340 H         1 LIG         0.0600 
     26 H8          5.4084   64.3066   62.4453 H         1 LIG         0.1150 
     27 H91         5.4396   70.4969   65.3615 H         1 LIG         0.0600 
     28 H92         5.7239   69.0160   66.2295 H         1 LIG         0.0600 
     29 H101        6.4989   68.8087   63.8945 H         1 LIG         0.0600 
     30 H102        4.9340   69.2748   63.2999 H         1 LIG         0.0600 
     31 H11         5.6221   66.7861   64.9708 H         1 LIG         0.0600 
     32 H21         3.7659   67.4364   66.5978 H         1 LIG         0.3100 
     33 H22         2.2547   67.8131   66.0730 H         1 LIG         0.3100 
     34 H131        2.0409   65.5082   64.5881 H         1 LIG         0.0600 
     35 H132        3.2972   65.3447   65.7824 H         1 LIG         0.0600 
     36 H151        2.3857   63.1205   64.0335 H         1 LIG         0.0600 
     37 H152        3.9373   62.5565   63.3575 H         1 LIG         0.0600 
     38 H153        3.7630   62.8785   65.0791 H         1 LIG         0.0600 
     39 H901        3.0479   69.8591   65.0374 H         1 LIG         0.0600 
     40 H902        3.4511   69.8723   66.7561 H         1 LIG         0.0600 
@<TRIPOS>BOND
     1    1    4 ar   
     2    1    3 ar   
     3    1    2 2    
     4    3    7 ar   
     5    3   20 1    
     6    4    5 ar   
     7    4   21 1    
     8    5    6 ar   
     9    5   22 1    
    10    6    7 ar   
    11    6   14 1    
    12    7    8 1    
    13    8    9 1    
    14    8   23 1    
    15    8   24 1    
    16    9   13 1    
    17    9   10 1    
    18    9   25 1    
    19   10   17 2    
    20   10   26 1    
    21   11   12 1    
    22   11   19 1    
    23   11   27 1    
    24   11   28 1    
    25   12   13 1    
    26   12   29 1    
    27   12   30 1    
    28   13   14 1    
    29   13   31 1    
    30   14   16 1    
    31   14   15 1    
    32   15   19 1    
    33   15   32 1    
    34   15   33 1    
    35   16   17 1    
    36   16   34 1    
    37   16   35 1    
    38   17   18 1    
    39   18   36 1    
    40   18   37 1    
    41   18   38 1    
    42   19   39 1    
    43   19   40 1    
@<TRIPOS>SUBSTRUCTURE
     1 LIG         1 GROUP             0       ****    0 ROOT    
