@<TRIPOS>MOLECULE
:4ciw_ligand
28   28    1
SMALL
USER_CHARGES


@<TRIPOS>ATOM
      1 OAF         3.7890   13.5880   21.1040 O.3       1 LIG        -0.6830 
      2 CAC         2.7850   13.2430   22.0910 C.3       1 LIG         0.2050 
      3 CAB         2.6550   11.6890   21.9910 C.3       1 LIG         0.2050 
      4 OAG         2.1110   11.3080   20.6850 O.3       1 LIG        -0.6830 
      5 CAA         1.7660   11.1990   23.1350 C.3       1 LIG        -0.1200 
      6 CAI         2.4740   11.5380   24.4820 C.3       1 LIG         0.1650 
      7 CAH         1.5790   11.2680   25.5970 C.2       1 LIG         0.7000 
      8 OAO         2.0910   11.3320   26.7630 O.co2     1 LIG        -0.8000 
      9 OAN         0.3520   10.9940   25.3590 O.co2     1 LIG        -0.8000 
     10 OAM         3.6910   10.7160   24.5930 O.3       1 LIG        -0.6830 
     11 CAE         2.9630   12.8870   24.5230 C.2       1 LIG        -0.1150 
     12 CAD         3.1320   13.7360   23.4150 C.2       1 LIG         0.0000 
     13 CAL         3.6030   15.0790   23.6080 C.3       1 LIG        -0.1200 
     14 CAK         3.0180   15.7010   24.8980 C.3       1 LIG         0.1450 
     15 OAJ         2.9920   17.1910   24.8500 O.3       1 LIG        -0.6830 
     16 HOAF        3.5458   14.4351   20.7397 H         1 LIG         0.4180 
     17 HAC         1.8429   13.7034   21.7958 H         1 LIG         0.0600 
     18 HAB         3.6408   11.2271   22.0647 H         1 LIG         0.0600 
     19 HOAG        2.6966   10.6748   20.2864 H         1 LIG         0.4180 
     20 HAA1        1.6089   10.1235   23.0545 H         1 LIG         0.0600 
     21 HAA2        0.7902   11.6796   23.0415 H         1 LIG         0.0600 
     22 HOAM        4.1303   10.9346   25.4046 H         1 LIG         0.4180 
     23 HAE         3.2417   13.2389   25.5061 H         1 LIG         0.1150 
     24 HAL1        3.2621   15.6811   22.7657 H         1 LIG         0.0600 
     25 HAL2        4.6929   15.1155   23.5983 H         1 LIG         0.0600 
     26 HAK1        3.6511   15.4262   25.7396 H         1 LIG         0.0600 
     27 HAK2        2.0359   15.3391   25.1508 H         1 LIG         0.0600 
     28 HOAJ        2.7266   17.5127   25.6988 H         1 LIG         0.4180 
@<TRIPOS>BOND
     1    1    2 1    
     2    1   16 1    
     3    2    3 1    
     4    2   12 1    
     5    2   17 1    
     6    3    4 1    
     7    3    5 1    
     8    3   18 1    
     9    4   19 1    
    10    5    6 1    
    11    5   20 1    
    12    5   21 1    
    13    6    7 1    
    14    6   10 1    
    15    6   11 1    
    16    7    8 2    
    17    7    9 1    
    18   10   22 1    
    19   11   12 2    
    20   11   23 1    
    21   12   13 1    
    22   13   14 1    
    23   13   24 1    
    24   13   25 1    
    25   14   15 1    
    26   14   26 1    
    27   14   27 1    
    28   15   28 1    
@<TRIPOS>SUBSTRUCTURE
     1 LIG         1 GROUP             0       ****    0 ROOT    
