@<TRIPOS>MOLECULE
:3b1m_ligand
64   68    1
SMALL
USER_CHARGES


@<TRIPOS>ATOM
      1 C1         15.7740   50.8300   64.6170 C.2       1 LIG        -0.6012 
      2 C2         16.1630   51.3720   63.4670 C.2       1 LIG         0.9763 
      3 C3         15.9890   50.6360   62.1930 C.2       1 LIG        -0.7162 
      4 C4         15.2070   49.5540   62.1390 C.2       1 LIG         0.0850 
      5 C5         14.9780   48.7110   63.3990 C.3       1 LIG         0.1150 
      6 C6         14.8810   49.6450   64.6160 C.2       1 LIG         0.4700 
      7 O7         14.4690   48.9240   61.2220 O.3       1 LIG        -0.1700 
      8 C8         13.4550   48.1580   61.7360 C.ar      1 LIG         0.0850 
      9 C9         13.6810   47.9700   63.1160 C.ar      1 LIG        -0.1150 
     10 C10        12.3410   47.5920   61.1330 C.ar      1 LIG        -0.1150 
     11 C11        11.4420   46.8460   61.8930 C.ar      1 LIG         0.0850 
     12 C12        11.6630   46.6650   63.2530 C.ar      1 LIG        -0.1150 
     13 C13        12.7740   47.2230   63.8640 C.ar      1 LIG         0.1500 
     14 O14        14.1550   49.4080   65.5780 O.2       1 LIG        -0.4700 
     15 O15        12.9800   47.0320   65.2130 O.3       1 LIG        -0.5850 
     16 O16        10.3340   46.2800   61.2970 O.3       1 LIG        -0.2850 
     17 C17        12.1040   47.7790   59.6940 C.2       1 LIG         0.6150 
     18 N18        10.8360   47.9200   59.2710 N.am      1 LIG        -0.5000 
     19 C19        16.1410   47.7400   63.5900 C.3       1 LIG        -0.1800 
     20 O20        13.0450   47.7900   58.9090 O.2       1 LIG        -0.5000 
     21 C21        16.2490   51.3830   65.9010 C.2       1 LIG         0.4700 
     22 O22        16.7400   52.5980   63.4560 O.co2     1 LIG        -0.7739 
     23 C23        17.7510   51.5090   66.1720 C.3       1 LIG        -0.1800 
     24 O24        15.4430   51.7390   66.7480 O.2       1 LIG        -0.4700 
     25 C25         9.1820   45.7330   61.8970 C.3       1 LIG         0.1100 
     26 C26        10.5550   48.0910   57.8540 C.3       1 LIG         0.1950 
     27 C27         9.1190   48.5030   57.6710 C.ar      1 LIG        -0.1150 
     28 C28         8.7890   49.8260   57.3350 C.ar      1 LIG        -0.1150 
     29 C29         7.4490   50.1980   57.1720 C.ar      1 LIG        -0.1150 
     30 C30         6.4310   49.2540   57.3420 C.ar      1 LIG        -0.1150 
     31 C31         6.7490   47.9530   57.6720 C.ar      1 LIG         0.0000 
     32 C32         8.0920   47.5690   57.8380 C.ar      1 LIG         0.0000 
     33 C33         5.7310   47.0340   57.8370 C.ar      1 LIG        -0.1150 
     34 C34         6.0340   45.7080   58.1710 C.ar      1 LIG        -0.1150 
     35 C35         7.3670   45.3190   58.3370 C.ar      1 LIG        -0.1150 
     36 C36         8.3970   46.2550   58.1690 C.ar      1 LIG        -0.1150 
     37 C37         9.8750   50.8470   57.1500 C.3       1 LIG        -0.0050 
     38 C38        10.3990   50.8580   55.7130 C.3       1 LIG        -0.1800 
     39 H3         16.2355   51.1497   61.2752 H         1 LIG         0.1150 
     40 H12        10.9756   46.0818   63.8478 H         1 LIG         0.1150 
     41 HO15       13.6109   47.6453   65.5666 H         1 LIG         0.4350 
     42 HN18       10.0699   47.8848   59.9295 H         1 LIG         0.3000 
     43 H191       16.0075   47.1280   64.4817 H         1 LIG         0.0600 
     44 H192       16.2043   47.0674   62.7360 H         1 LIG         0.0600 
     45 H193       17.0918   48.2647   63.6799 H         1 LIG         0.0600 
     46 H231       17.9695   51.2705   67.2129 H         1 LIG         0.0600 
     47 H232       18.3141   50.8256   65.5361 H         1 LIG         0.0600 
     48 H233       18.0862   52.5266   65.9715 H         1 LIG         0.0600 
     49 H251        8.3861   45.6194   61.1617 H         1 LIG         0.0300 
     50 H252        9.4462   44.7483   62.2737 H         1 LIG         0.0300 
     51 H253        8.8158   46.3552   62.7120 H         1 LIG         0.0300 
     52 H261       10.7516   47.1601   57.3224 H         1 LIG         0.0600 
     53 H262       11.2632   48.7745   57.3958 H         1 LIG         0.0600 
     54 H29         7.1916   51.2178   56.9239 H         1 LIG         0.1150 
     55 H30         5.4142   49.5715   57.2571 H         1 LIG         0.1150 
     56 H33         4.6983   47.3281   57.7222 H         1 LIG         0.1150 
     57 H34         5.2389   44.9887   58.3036 H         1 LIG         0.1150 
     58 H35         7.5880   44.2970   58.5987 H         1 LIG         0.1150 
     59 H36         9.4007   45.8920   58.3207 H         1 LIG         0.1150 
     60 H371       10.6786   50.7253   57.8699 H         1 LIG         0.0600 
     61 H372        9.3931   51.7289   57.4757 H         1 LIG         0.0600 
     62 H381       11.0903   51.6827   55.5505 H         1 LIG         0.0600 
     63 H382       10.9046   49.9294   55.4498 H         1 LIG         0.0600 
     64 H383        9.5750   50.9904   55.0155 H         1 LIG         0.0600 
@<TRIPOS>BOND
     1    1    2 2    
     2    1    6 1    
     3    1   21 1    
     4    2    3 1    
     5    2   22 1    
     6    3    4 2    
     7    3   39 1    
     8    4    5 1    
     9    4    7 1    
    10    5    6 1    
    11    5    9 1    
    12    5   19 1    
    13    6   14 2    
    14    7    8 1    
    15    8    9 ar   
    16    8   10 ar   
    17    9   13 ar   
    18   10   11 ar   
    19   10   17 1    
    20   11   12 ar   
    21   11   16 1    
    22   12   13 ar   
    23   12   40 1    
    24   13   15 1    
    25   15   41 1    
    26   16   25 1    
    27   17   18 am   BACKBONE|DICT|INTERRES
    28   17   20 2    
    29   18   26 1    
    30   18   42 1    
    31   19   43 1    
    32   19   44 1    
    33   19   45 1    
    34   21   23 1    
    35   21   24 2    
    36   23   46 1    
    37   23   47 1    
    38   23   48 1    
    39   25   49 1    
    40   25   50 1    
    41   25   51 1    
    42   26   27 1    
    43   26   52 1    
    44   26   53 1    
    45   27   28 ar   
    46   27   32 ar   
    47   28   29 ar   
    48   28   37 1    
    49   29   30 ar   
    50   29   54 1    
    51   30   31 ar   
    52   30   55 1    
    53   31   32 ar   
    54   31   33 ar   
    55   32   36 ar   
    56   33   34 ar   
    57   33   56 1    
    58   34   35 ar   
    59   34   57 1    
    60   35   36 ar   
    61   35   58 1    
    62   36   59 1    
    63   37   38 1    
    64   37   60 1    
    65   37   61 1    
    66   38   62 1    
    67   38   63 1    
    68   38   64 1    
@<TRIPOS>SUBSTRUCTURE
     1 LIG         1 GROUP             0       ****    0 ROOT    
