@<TRIPOS>MOLECULE
:1g2k_ligand
82   86    1
SMALL
USER_CHARGES


@<TRIPOS>ATOM
      1 N01        11.3490   23.7090    5.9420 N.pl3     1 LIG        -0.5376 
      2 S02        11.8060   22.2030    6.4460 S.o2      1 LIG         1.0428 
      3 N03        13.4310   22.2920    6.2150 N.pl3     1 LIG        -0.5376 
      4 C04        13.8510   22.2230    4.7960 C.3       1 LIG         0.1321 
      5 C05        14.0220   23.6050    4.1440 C.3       1 LIG         0.2417 
      6 C06        13.0480   24.6790    4.6150 C.3       1 LIG         0.2417 
      7 C07        11.5560   24.3030    4.6100 C.3       1 LIG         0.1321 
      8 C08        10.1700   24.1890    6.5190 C.3       1 LIG         0.2105 
      9 C09         9.8920   25.4570    7.2180 C.ar      1 LIG        -0.1150 
     10 C10         8.8250   26.2930    6.8150 C.ar      1 LIG        -0.1150 
     11 C11         8.6000   27.5210    7.4900 C.ar      1 LIG        -0.1150 
     12 C12         9.4560   27.9140    8.5820 C.ar      1 LIG        -0.1150 
     13 C13        10.5270   27.0760    8.9870 C.ar      1 LIG        -0.1150 
     14 C14        10.7450   25.8490    8.3020 C.ar      1 LIG        -0.1150 
     15 O15        11.2360   21.1560    5.5990 O.2       1 LIG        -0.4680 
     16 O16        14.8540   20.3500    3.5600 O.3       1 LIG        -0.2850 
     17 C17        15.8640   19.4590    3.2220 C.ar      1 LIG         0.0850 
     18 C18        16.8400   19.0170    4.1900 C.ar      1 LIG        -0.1150 
     19 C19        17.8750   18.0980    3.8300 C.ar      1 LIG        -0.1150 
     20 C20        17.9430   17.6050    2.4890 C.ar      1 LIG        -0.1150 
     21 C21        16.9850   18.0300    1.5170 C.ar      1 LIG        -0.1150 
     22 C22        15.9540   18.9530    1.8850 C.ar      1 LIG        -0.1150 
     23 C23        14.2710   22.8980    7.3060 C.3       1 LIG         0.2105 
     24 C24        15.2130   22.0330    8.1100 C.ar      1 LIG        -0.1150 
     25 C25        14.6980   21.1220    9.0830 C.ar      1 LIG        -0.1150 
     26 C26        15.5880   20.2940    9.8420 C.ar      1 LIG        -0.1150 
     27 C27        17.0050   20.3790    9.6260 C.ar      1 LIG        -0.1150 
     28 C28        17.5310   21.2940    8.6530 C.ar      1 LIG        -0.1150 
     29 C29        16.6340   22.1150    7.9010 C.ar      1 LIG        -0.1150 
     30 O30        15.3200   24.1020    4.3950 O.3       1 LIG        -0.6830 
     31 O31        13.2740   25.8320    3.8140 O.3       1 LIG        -0.6830 
     32 C32        10.9130   23.4660    3.4700 C.3       1 LIG         0.1400 
     33 O33         9.4720   23.5050    3.6580 O.3       1 LIG        -0.2850 
     34 C34         8.6610   24.4010    3.0030 C.ar      1 LIG         0.0850 
     35 C35         9.1160   25.7120    2.6050 C.ar      1 LIG        -0.1150 
     36 C36         8.2440   26.6180    1.9330 C.ar      1 LIG        -0.1150 
     37 C37         6.9000   26.2300    1.6530 C.ar      1 LIG        -0.1150 
     38 C38         6.4320   24.9430    2.0370 C.ar      1 LIG        -0.1150 
     39 C39         7.3130   24.0330    2.7070 C.ar      1 LIG        -0.1150 
     40 O40        11.5840   22.1020    7.8880 O.2       1 LIG        -0.4680 
     41 C41        15.0820   21.3320    4.6000 C.3       1 LIG         0.1400 
     42 C51         7.4870   28.4170    7.0500 C.2       1 LIG         0.6150 
     43 O52         7.6600   29.6620    7.0840 O.2       1 LIG        -0.5000 
     44 N53         6.2900   27.8680    6.6330 N.am      1 LIG        -0.5000 
     45 C54         5.2360   28.7840    6.2470 C.3       1 LIG         0.0200 
     46 H04        13.0756   21.7113    4.2361 H         1 LIG         0.0733 
     47 H05        13.9226   23.4259    3.0784 H         1 LIG         0.0600 
     48 H06        13.3082   24.9993    5.6228 H         1 LIG         0.0600 
     49 H07        11.0507   25.2697    4.6076 H         1 LIG         0.0733 
     50 H081        9.8320   23.4885    7.2795 H         1 LIG         0.0733 
     51 H082        9.3522   24.0627    5.8220 H         1 LIG         0.0733 
     52 H10         8.1942   26.0012    5.9869 H         1 LIG         0.1150 
     53 H12         9.2956   28.8533    9.0918 H         1 LIG         0.1150 
     54 H13        11.1856   27.3791    9.7845 H         1 LIG         0.1150 
     55 H14        11.5777   25.2178    8.5710 H         1 LIG         0.1150 
     56 H18        16.8082   19.3622    5.2117 H         1 LIG         0.1150 
     57 H19        18.5958   17.7726    4.5659 H         1 LIG         0.1150 
     58 H20        18.7014   16.8978    2.2386 H         1 LIG         0.1150 
     59 H21        17.0255   17.6530    0.5104 H         1 LIG         0.1150 
     60 H22        15.2329   19.2718    1.1468 H         1 LIG         0.1150 
     61 H231       13.6278   23.4187    8.0139 H         1 LIG         0.0733 
     62 H232       14.8637   23.7036    6.8773 H         1 LIG         0.0733 
     63 H25        13.6377   21.0752    9.2580 H         1 LIG         0.1150 
     64 H26        15.1906   19.6072   10.5745 H         1 LIG         0.1150 
     65 H27        17.6746   19.7558   10.1996 H         1 LIG         0.1150 
     66 H28        18.5960   21.3643    8.4875 H         1 LIG         0.1150 
     67 H29        17.0299   22.8025    7.1682 H         1 LIG         0.1150 
     68 HO30       15.4140   24.9293    3.9358 H         1 LIG         0.4180 
     69 HO31       13.5445   25.5569    2.9406 H         1 LIG         0.4180 
     70 H321       11.2356   22.4302    3.4472 H         1 LIG         0.0300 
     71 H322       11.1810   23.8889    2.5014 H         1 LIG         0.0300 
     72 H35        10.1285   26.0310    2.7969 H         1 LIG         0.1150 
     73 H36         8.5998   27.5950    1.6397 H         1 LIG         0.1150 
     74 H37         6.2351   26.9113    1.1502 H         1 LIG         0.1150 
     75 H38         5.4122   24.6531    1.8310 H         1 LIG         0.1150 
     76 H39         6.9471   23.0760    3.0418 H         1 LIG         0.1150 
     77 H411       15.2279   20.7724    5.5232 H         1 LIG         0.0300 
     78 H412       16.0222   21.8487    4.4259 H         1 LIG         0.0300 
     79 HN53        6.1422   26.8693    6.6067 H         1 LIG         0.3000 
     80 H541        4.3202   28.2257    6.0538 H         1 LIG         0.0600 
     81 H542        5.0223   29.5146    7.0293 H         1 LIG         0.0600 
     82 H543        5.5021   29.3118    5.3327 H         1 LIG         0.0600 
@<TRIPOS>BOND
     1    1    8 1    
     2    1    7 1    
     3    1    2 1    
     4    2   40 2    
     5    2   15 2    
     6    2    3 1    
     7    3   23 1    
     8    3    4 1    
     9    4   41 1    
    10    4    5 1    
    11    4   46 1    
    12    5   30 1    
    13    5    6 1    
    14    5   47 1    
    15    6   31 1    
    16    6    7 1    
    17    6   48 1    
    18    7   32 1    
    19    7   49 1    
    20    8    9 1    
    21    8   50 1    
    22    8   51 1    
    23    9   14 ar   
    24    9   10 ar   
    25   10   11 ar   
    26   10   52 1    
    27   11   42 1    
    28   11   12 ar   
    29   12   13 ar   
    30   12   53 1    
    31   13   14 ar   
    32   13   54 1    
    33   14   55 1    
    34   16   41 1    
    35   16   17 1    
    36   17   22 ar   
    37   17   18 ar   
    38   18   19 ar   
    39   18   56 1    
    40   19   20 ar   
    41   19   57 1    
    42   20   21 ar   
    43   20   58 1    
    44   21   22 ar   
    45   21   59 1    
    46   22   60 1    
    47   23   24 1    
    48   23   61 1    
    49   23   62 1    
    50   24   29 ar   
    51   24   25 ar   
    52   25   26 ar   
    53   25   63 1    
    54   26   27 ar   
    55   26   64 1    
    56   27   28 ar   
    57   27   65 1    
    58   28   29 ar   
    59   28   66 1    
    60   29   67 1    
    61   30   68 1    
    62   31   69 1    
    63   32   33 1    
    64   32   70 1    
    65   32   71 1    
    66   33   34 1    
    67   34   39 ar   
    68   34   35 ar   
    69   35   36 ar   
    70   35   72 1    
    71   36   37 ar   
    72   36   73 1    
    73   37   38 ar   
    74   37   74 1    
    75   38   39 ar   
    76   38   75 1    
    77   39   76 1    
    78   41   77 1    
    79   41   78 1    
    80   42   44 am   BACKBONE|DICT|INTERRES
    81   42   43 2    
    82   44   45 1    
    83   44   79 1    
    84   45   80 1    
    85   45   81 1    
    86   45   82 1    
@<TRIPOS>SUBSTRUCTURE
     1 LIG         1 GROUP             0       ****    0 ROOT    
