:1h23_ligand
                    3D
 Schrodinger Suite 2020-1.
 84 87  0  0  1  0            999 V2000
    4.5220   59.6020   71.6660 C   0  0  0  0  0  0
    3.7000   58.5110   71.8970 N   0  0  0  0  0  0
    5.3310   59.6040   70.7170 O   0  0  0  0  0  0
    2.5050   59.4210   73.7420 C   0  0  0  0  0  0
    3.3450   60.6450   73.5970 C   0  0  0  0  0  0
    0.6330   57.1930   73.6090 C   0  0  0  0  0  0
    0.4280   60.3760   74.7650 N   0  3  0  0  0  0
   -0.4130   60.5350   73.4890 C   0  0  0  0  0  0
    4.3040   60.7580   72.6160 C   0  0  0  0  0  0
    2.0050   57.0360   72.9280 C   0  0  0  0  0  0
    1.4770   59.2970   74.8870 C   0  0  1  0  0  0
    0.7840   57.9110   74.9890 C   0  0  0  0  0  0
   -0.7010   62.0450   73.3950 C   0  0  0  0  0  0
    1.0830   68.6220   60.9810 C   0  0  0  0  0  0
    2.7510   58.3750   72.8710 C   0  0  0  0  0  0
    2.4730   68.5940   61.0220 N   0  0  0  0  0  0
    3.2580   68.5600   62.1370 C   0  0  0  0  0  0
    2.6510   68.5270   63.3920 C   0  0  0  0  0  0
    1.1680   68.5310   63.4560 C   0  0  0  0  0  0
    0.3990   68.5670   62.3320 C   0  0  0  0  0  0
    0.4940   68.7720   59.9020 O   0  0  0  0  0  0
    4.7870   68.5540   61.9260 C   0  0  0  0  0  0
    3.5080   68.5300   64.6550 C   0  0  2  0  0  0
    5.0070   68.2500   64.4180 C   0  0  0  0  0  0
    5.5200   69.0220   63.1970 C   0  0  0  0  0  0
    3.0380   67.5970   65.7540 N   0  3  0  0  0  0
    3.1900   66.1310   65.5760 C   0  0  0  0  0  0
   -0.4650   62.5560   71.9940 C   0  0  0  0  0  0
    1.0260   62.5860   71.6890 C   0  0  0  0  0  0
    1.2970   62.4980   70.2080 C   0  0  0  0  0  0
    2.7810   62.5820   69.9290 C   0  0  0  0  0  0
    3.3450   63.9720   70.1360 C   0  0  0  0  0  0
    4.6020   64.2420   69.3260 C   0  0  0  0  0  0
    4.8080   65.7340   69.1310 C   0  0  0  0  0  0
    3.9550   66.3340   68.0170 C   0  0  0  0  0  0
    4.1820   65.6650   66.6480 C   0  0  0  0  0  0
    3.8163   57.7071   71.2899 H   0  0  0  0  0  0
    3.1964   61.4692   74.2780 H   0  0  0  0  0  0
   -0.0367   57.7666   72.9719 H   0  0  0  0  0  0
    0.1693   56.2149   73.7410 H   0  0  0  0  0  0
    0.9293   61.2462   74.8712 H   0  0  0  0  0  0
   -0.2051   60.2968   75.5480 H   0  0  0  0  0  0
   -1.3320   59.9530   73.5660 H   0  0  0  0  0  0
    0.1259   60.1545   72.6217 H   0  0  0  0  0  0
    4.9031   61.6529   72.5297 H   0  0  0  0  0  0
    1.8674   56.6344   71.9249 H   0  0  0  0  0  0
    2.6139   56.3222   73.4830 H   0  0  0  0  0  0
    2.0026   59.4864   75.8237 H   0  0  0  0  0  0
    1.3918   57.2705   75.6296 H   0  0  0  0  0  0
   -0.1831   57.9909   75.4871 H   0  0  0  0  0  0
   -0.1000   62.6340   74.0906 H   0  0  0  0  0  0
   -1.7390   62.2188   73.6787 H   0  0  0  0  0  0
    2.9644   68.6184   60.1342 H   0  0  0  0  0  0
    0.6750   68.4425   64.4122 H   0  0  0  0  0  0
   -0.6770   68.5402   62.4092 H   0  0  0  0  0  0
    5.0454   69.2035   61.0898 H   0  0  0  0  0  0
    5.0937   67.5384   61.6729 H   0  0  0  0  0  0
    3.4300   69.5323   65.0659 H   0  0  0  0  0  0
    5.2062   67.1948   64.2360 H   0  0  0  0  0  0
    5.5856   68.5182   65.2997 H   0  0  0  0  0  0
    5.4044   70.0937   63.3447 H   0  0  0  0  0  0
    6.5821   68.8149   63.0851 H   0  0  0  0  0  0
    2.0591   67.7870   65.9133 H   0  0  0  0  0  0
    3.5379   67.8443   66.5960 H   0  0  0  0  0  0
    3.4902   65.8452   64.5675 H   0  0  0  0  0  0
    2.2163   65.6734   65.7532 H   0  0  0  0  0  0
   -0.8688   63.5613   71.8842 H   0  0  0  0  0  0
   -1.0046   61.9286   71.2854 H   0  0  0  0  0  0
    1.5399   61.7572   72.1593 H   0  0  0  0  0  0
    1.4571   63.4910   72.1179 H   0  0  0  0  0  0
    0.7511   63.2880   69.6986 H   0  0  0  0  0  0
    0.9194   61.5535   69.8254 H   0  0  0  0  0  0
    2.9074   62.3048   68.8816 H   0  0  0  0  0  0
    3.3431   61.8442   70.4869 H   0  0  0  0  0  0
    3.5330   64.1566   71.1931 H   0  0  0  0  0  0
    2.5788   64.6905   69.8465 H   0  0  0  0  0  0
    4.6065   63.6788   68.4026 H   0  0  0  0  0  0
    5.4464   63.8468   69.8903 H   0  0  0  0  0  0
    5.8536   65.8768   68.8665 H   0  0  0  0  0  0
    4.6491   66.2680   70.0690 H   0  0  0  0  0  0
    4.2012   67.3952   67.9760 H   0  0  0  0  0  0
    2.9006   66.2739   68.2873 H   0  0  0  0  0  0
    5.2034   65.8675   66.3225 H   0  0  0  0  0  0
    4.0833   64.5843   66.6726 H   0  0  0  0  0  0
  1  9  1  0  0  0
  1  3  2  0  0  0
  1  2  1  0  0  0
  2 15  1  0  0  0
  2 37  1  0  0  0
  4 15  2  0  0  0
  4 11  1  0  0  0
  4  5  1  0  0  0
  5  9  2  0  0  0
  5 38  1  0  0  0
  6 12  1  0  0  0
  6 10  1  0  0  0
  6 39  1  0  0  0
  6 40  1  0  0  0
  7 11  1  0  0  0
  7  8  1  0  0  0
  7 41  1  0  0  0
  7 42  1  0  0  0
  8 13  1  0  0  0
  8 43  1  0  0  0
  8 44  1  0  0  0
  9 45  1  0  0  0
 10 15  1  0  0  0
 10 46  1  0  0  0
 10 47  1  0  0  0
 11 12  1  0  0  0
 11 48  1  0  0  0
 12 49  1  0  0  0
 12 50  1  0  0  0
 13 28  1  0  0  0
 13 51  1  0  0  0
 13 52  1  0  0  0
 14 16  1  0  0  0
 14 20  1  0  0  0
 14 21  2  0  0  0
 16 17  1  0  0  0
 16 53  1  0  0  0
 17 18  2  0  0  0
 17 22  1  0  0  0
 18 23  1  0  0  0
 18 19  1  0  0  0
 19 20  2  0  0  0
 19 54  1  0  0  0
 20 55  1  0  0  0
 22 25  1  0  0  0
 22 56  1  0  0  0
 22 57  1  0  0  0
 23 26  1  0  0  0
 23 24  1  0  0  0
 23 58  1  0  0  0
 24 25  1  0  0  0
 24 59  1  0  0  0
 24 60  1  0  0  0
 25 61  1  0  0  0
 25 62  1  0  0  0
 26 27  1  0  0  0
 26 63  1  0  0  0
 26 64  1  0  0  0
 27 36  1  0  0  0
 27 65  1  0  0  0
 27 66  1  0  0  0
 28 29  1  0  0  0
 28 67  1  0  0  0
 28 68  1  0  0  0
 29 30  1  0  0  0
 29 69  1  0  0  0
 29 70  1  0  0  0
 30 31  1  0  0  0
 30 71  1  0  0  0
 30 72  1  0  0  0
 31 32  1  0  0  0
 31 73  1  0  0  0
 31 74  1  0  0  0
 32 33  1  0  0  0
 32 75  1  0  0  0
 32 76  1  0  0  0
 33 34  1  0  0  0
 33 77  1  0  0  0
 33 78  1  0  0  0
 34 35  1  0  0  0
 34 79  1  0  0  0
 34 80  1  0  0  0
 35 36  1  0  0  0
 35 81  1  0  0  0
 35 82  1  0  0  0
 36 83  1  0  0  0
 36 84  1  0  0  0
M  CHG  2   7   1  26   1
M  END
> <s_pdb_PDB_ID>


> <s_pdb_PDB_CLASSIFICATION>
1H23_PROTEIN

> <s_pdb_PDB_format_version>
3.0

> <b_ppw_prepared>
1

> <s_ppw_prepared_with_version>
2020-1

> <b_ppw_created_disulfur>
1

> <s_ppw_het_states>
eJxdlEuOgzAQRK+CWDMjY3cZyFVG3CCa3ayi3H1wG/OCs0BFyfhVf5TXOI+P4ef4mcVlGsI+DUWuyO2SKSBnZESmaZhPabhCZiS0BC1BM2gGzaBZQkIzaAbNoBk0gyZogqZ4FSRogiZogiZogiZoGVqGlr22os9p1N6dAapRxhFvxsqJtRilWW0IoRnx0yitv51IH5/MDds+iW5AOY2MkfpLq2G3ZaizbUbuky49ZSuGuMNqLbE3cm8sV3TzpMZSmgcryxJvBljzpLb1BmMosmLbHd51UYvV6LE3ArsUuk/kSZVu21YXohmeQ+SQ5xDly3sqxiDvqShONSnFyYNlgmUPlgmWZ3Iczlf4Pk68xnVb1+N/o76OWwh2vr2n4ffv+azPfX//A3N06G8=

> <r_ff_Potential_Energy-OPLS3e>
-101189.436099317

> <r_ff_RMS_Derivative-OPLS3e>
0.0356040497162338

> <b_ff_Minimization_Converged-OPLS3e>
1

> <r_i_Potential_Energy-OPLS_2005>
-16430.7839628823

> <r_i_RMS_Derivative-OPLS_2005>
0.0455694948145727

> <r_i_Max_Derivative-OPLS_2005>
1.07572556492492

> <r_i_Stretch_Energy-OPLS_2005>
20.6819372274315

> <r_i_Bend_Energy-OPLS_2005>
425.152420171731

> <r_i_LJ-14_Energy-OPLS_2005>
736.653568452764

> <r_i_El-14_Energy-OPLS_2005>
-565.931473512491

> <r_i_Van_der_Waals_Energy-OPLS_2005>
-1146.92276095898

> <r_i_Electrostatic_Energy-OPLS_2005>
-16167.7028017736

> <r_i_Dihedral_Energy-OPLS_2005>
267.285147510869

> <r_i_target_temperature>
298

> <s_user_Residue_ID>
_:1

$$$$
