@<TRIPOS>MOLECULE
:1h23_ligand
84   87    1
SMALL
USER_CHARGES


@<TRIPOS>ATOM
      1 C1          4.5220   59.6020   71.6660 C.ar      1 LIG         0.5567 
      2 N2          3.7000   58.5110   71.8970 N.pl3     1 LIG        -0.3513 
      3 O7          5.3310   59.6040   70.7170 O.2       1 LIG        -0.5000 
      4 C4          2.5050   59.4210   73.7420 C.ar      1 LIG         0.0000 
      5 C5          3.3450   60.6450   73.5970 C.ar      1 LIG        -0.1150 
      6 C14         0.6330   57.1930   73.6090 C.3       1 LIG        -0.1200 
      7 N17         0.4280   60.3760   74.7650 N.4       1 LIG        -0.2000 
      8 C24        -0.4130   60.5350   73.4890 C.3       1 LIG         0.1700 
      9 C6          4.3040   60.7580   72.6160 C.ar      1 LIG        -0.1717 
     10 C9          2.0050   57.0360   72.9280 C.3       1 LIG        -0.1200 
     11 C10         1.4770   59.2970   74.8870 C.3       1 LIG         0.2300 
     12 C13         0.7840   57.9110   74.9890 C.3       1 LIG        -0.1200 
     13 C63        -0.7010   62.0450   73.3950 C.3       1 LIG        -0.1200 
     14 C29         1.0830   68.6220   60.9810 C.ar      1 LIG         0.5567 
     15 C3          2.7510   58.3750   72.8710 C.ar      1 LIG         0.0513 
     16 N30         2.4730   68.5940   61.0220 N.pl3     1 LIG        -0.3513 
     17 C31         3.2580   68.5600   62.1370 C.ar      1 LIG         0.0513 
     18 C32         2.6510   68.5270   63.3920 C.ar      1 LIG         0.0000 
     19 C33         1.1680   68.5310   63.4560 C.ar      1 LIG        -0.1150 
     20 C34         0.3990   68.5670   62.3320 C.ar      1 LIG        -0.1717 
     21 O35         0.4940   68.7720   59.9020 O.2       1 LIG        -0.5000 
     22 C36         4.7870   68.5540   61.9260 C.3       1 LIG        -0.1200 
     23 C37         3.5080   68.5300   64.6550 C.3       1 LIG         0.2300 
     24 C38         5.0070   68.2500   64.4180 C.3       1 LIG        -0.1200 
     25 C39         5.5200   69.0220   63.1970 C.3       1 LIG        -0.1200 
     26 N40         3.0380   67.5970   65.7540 N.4       1 LIG        -0.2000 
     27 C41         3.1900   66.1310   65.5760 C.3       1 LIG         0.1700 
     28 C64        -0.4650   62.5560   71.9940 C.3       1 LIG        -0.1200 
     29 C65         1.0260   62.5860   71.6890 C.3       1 LIG        -0.1200 
     30 C66         1.2970   62.4980   70.2080 C.3       1 LIG        -0.1200 
     31 C67         2.7810   62.5820   69.9290 C.3       1 LIG        -0.1200 
     32 C68         3.3450   63.9720   70.1360 C.3       1 LIG        -0.1200 
     33 C69         4.6020   64.2420   69.3260 C.3       1 LIG        -0.1200 
     34 C70         4.8080   65.7340   69.1310 C.3       1 LIG        -0.1200 
     35 C71         3.9550   66.3340   68.0170 C.3       1 LIG        -0.1200 
     36 C72         4.1820   65.6650   66.6480 C.3       1 LIG        -0.1200 
     37 HN2         3.8163   57.7071   71.2899 H         1 LIG         0.3000 
     38 H5          3.1964   61.4692   74.2780 H         1 LIG         0.1150 
     39 H141       -0.0367   57.7666   72.9719 H         1 LIG         0.0600 
     40 H142        0.1693   56.2149   73.7410 H         1 LIG         0.0600 
     41 H171        0.9293   61.2462   74.8712 H         1 LIG         0.3100 
     42 H172       -0.2051   60.2968   75.5480 H         1 LIG         0.3100 
     43 H241       -1.3320   59.9530   73.5660 H         1 LIG         0.0600 
     44 H242        0.1259   60.1545   72.6217 H         1 LIG         0.0600 
     45 H6          4.9031   61.6529   72.5297 H         1 LIG         0.1150 
     46 H91         1.8674   56.6344   71.9249 H         1 LIG         0.0600 
     47 H92         2.6139   56.3222   73.4830 H         1 LIG         0.0600 
     48 H10         2.0026   59.4864   75.8237 H         1 LIG         0.0600 
     49 H131        1.3918   57.2705   75.6296 H         1 LIG         0.0600 
     50 H132       -0.1831   57.9909   75.4871 H         1 LIG         0.0600 
     51 H631       -0.1000   62.6340   74.0906 H         1 LIG         0.0600 
     52 H632       -1.7390   62.2188   73.6787 H         1 LIG         0.0600 
     53 HN30        2.9644   68.6184   60.1342 H         1 LIG         0.3000 
     54 H33         0.6750   68.4425   64.4122 H         1 LIG         0.1150 
     55 H34        -0.6770   68.5402   62.4092 H         1 LIG         0.1150 
     56 H361        5.0454   69.2035   61.0898 H         1 LIG         0.0600 
     57 H362        5.0937   67.5384   61.6729 H         1 LIG         0.0600 
     58 H37         3.4300   69.5323   65.0659 H         1 LIG         0.0600 
     59 H381        5.2062   67.1948   64.2360 H         1 LIG         0.0600 
     60 H382        5.5856   68.5182   65.2997 H         1 LIG         0.0600 
     61 H391        5.4044   70.0937   63.3447 H         1 LIG         0.0600 
     62 H392        6.5821   68.8149   63.0851 H         1 LIG         0.0600 
     63 H401        2.0591   67.7870   65.9133 H         1 LIG         0.3100 
     64 H402        3.5379   67.8443   66.5960 H         1 LIG         0.3100 
     65 H411        3.4902   65.8452   64.5675 H         1 LIG         0.0600 
     66 H412        2.2163   65.6734   65.7532 H         1 LIG         0.0600 
     67 H641       -0.8688   63.5613   71.8842 H         1 LIG         0.0600 
     68 H642       -1.0046   61.9286   71.2854 H         1 LIG         0.0600 
     69 H651        1.5399   61.7572   72.1593 H         1 LIG         0.0600 
     70 H652        1.4571   63.4910   72.1179 H         1 LIG         0.0600 
     71 H661        0.7511   63.2880   69.6986 H         1 LIG         0.0600 
     72 H662        0.9194   61.5535   69.8254 H         1 LIG         0.0600 
     73 H671        2.9074   62.3048   68.8816 H         1 LIG         0.0600 
     74 H672        3.3431   61.8442   70.4869 H         1 LIG         0.0600 
     75 H681        3.5330   64.1566   71.1931 H         1 LIG         0.0600 
     76 H682        2.5788   64.6905   69.8465 H         1 LIG         0.0600 
     77 H691        4.6065   63.6788   68.4026 H         1 LIG         0.0600 
     78 H692        5.4464   63.8468   69.8903 H         1 LIG         0.0600 
     79 H701        5.8536   65.8768   68.8665 H         1 LIG         0.0600 
     80 H702        4.6491   66.2680   70.0690 H         1 LIG         0.0600 
     81 H711        4.2012   67.3952   67.9760 H         1 LIG         0.0600 
     82 H712        2.9006   66.2739   68.2873 H         1 LIG         0.0600 
     83 H721        5.2034   65.8675   66.3225 H         1 LIG         0.0600 
     84 H722        4.0833   64.5843   66.6726 H         1 LIG         0.0600 
@<TRIPOS>BOND
     1    1    9 ar   
     2    1    3 2    
     3    1    2 ar   
     4    2   15 ar   
     5    2   37 1    
     6    4   15 ar   
     7    4   11 1    
     8    4    5 ar   
     9    5    9 ar   
    10    5   38 1    
    11    6   12 1    
    12    6   10 1    
    13    6   39 1    
    14    6   40 1    
    15    7   11 1    
    16    7    8 1    
    17    7   41 1    
    18    7   42 1    
    19    8   13 1    
    20    8   43 1    
    21    8   44 1    
    22    9   45 1    
    23   10   15 1    
    24   10   46 1    
    25   10   47 1    
    26   11   12 1    
    27   11   48 1    
    28   12   49 1    
    29   12   50 1    
    30   13   28 1    
    31   13   51 1    
    32   13   52 1    
    33   14   16 ar   
    34   14   20 ar   
    35   14   21 2    
    36   16   17 ar   
    37   16   53 1    
    38   17   18 ar   
    39   17   22 1    
    40   18   23 1    
    41   18   19 ar   
    42   19   20 ar   
    43   19   54 1    
    44   20   55 1    
    45   22   25 1    
    46   22   56 1    
    47   22   57 1    
    48   23   26 1    
    49   23   24 1    
    50   23   58 1    
    51   24   25 1    
    52   24   59 1    
    53   24   60 1    
    54   25   61 1    
    55   25   62 1    
    56   26   27 1    
    57   26   63 1    
    58   26   64 1    
    59   27   36 1    
    60   27   65 1    
    61   27   66 1    
    62   28   29 1    
    63   28   67 1    
    64   28   68 1    
    65   29   30 1    
    66   29   69 1    
    67   29   70 1    
    68   30   31 1    
    69   30   71 1    
    70   30   72 1    
    71   31   32 1    
    72   31   73 1    
    73   31   74 1    
    74   32   33 1    
    75   32   75 1    
    76   32   76 1    
    77   33   34 1    
    78   33   77 1    
    79   33   78 1    
    80   34   35 1    
    81   34   79 1    
    82   34   80 1    
    83   35   36 1    
    84   35   81 1    
    85   35   82 1    
    86   36   83 1    
    87   36   84 1    
@<TRIPOS>SUBSTRUCTURE
     1 LIG         1 GROUP             0       ****    0 ROOT    
