@<TRIPOS>MOLECULE
:1yc1_ligand
42   45    1
SMALL
USER_CHARGES


@<TRIPOS>ATOM
      1 C15         2.2240   35.5070   -4.3740 C.ar      1 LIG        -0.1150 
      2 C12         2.9190   36.2840   -3.4530 C.ar      1 LIG         0.0850 
      3 O17         4.2550   36.5260   -3.3050 O.3       1 LIG        -0.2850 
      4 C19         4.3940   37.3790   -2.2370 C.3       1 LIG         0.2000 
      5 O18         3.1580   37.6640   -1.7130 O.3       1 LIG        -0.2850 
      6 C16         2.2370   36.9820   -2.4570 C.ar      1 LIG         0.0850 
      7 C22         0.8510   36.9120   -2.3570 C.ar      1 LIG        -0.1150 
      8 C20         0.1620   36.1260   -3.2760 C.ar      1 LIG        -0.1150 
      9 C8          0.8380   35.4280   -4.2760 C.ar      1 LIG         0.0000 
     10 C4          0.1490   34.5980   -5.1600 C.ar      1 LIG        -0.1700 
     11 C1          0.0490   34.6960   -6.5420 C.ar      1 LIG         0.0560 
     12 C7          0.6670   35.7460   -7.4670 C.2       1 LIG         0.7150 
     13 O21         0.7830   35.4750   -8.6620 O.co2     1 LIG        -0.8000 
     14 O23         1.0430   36.8370   -7.0350 O.co2     1 LIG        -0.8000 
     15 N5         -0.7540   33.7190   -6.9620 N.pl3     1 LIG        -0.1490 
     16 C2         -0.6350   33.4940   -4.8430 C.ar      1 LIG         0.3834 
     17 N3         -1.1390   33.0470   -5.9970 N.2       1 LIG        -0.5310 
     18 C6         -0.7130   32.9160   -3.5760 C.ar      1 LIG        -0.0454 
     19 C10         0.4280   32.7190   -2.7970 C.ar      1 LIG        -0.1150 
     20 C14         0.3370   32.2030   -1.5060 C.ar      1 LIG        -0.1150 
     21 C26         1.6230   31.8700   -0.7440 C.3       1 LIG        -0.0050 
     22 C27         1.9390   30.3770   -0.8750 C.3       1 LIG        -0.1800 
     23 C13        -0.9120   31.9090   -0.9690 C.ar      1 LIG         0.1500 
     24 O25        -1.0080   31.6250    0.3610 O.3       1 LIG        -0.5850 
     25 C11        -2.0550   32.0720   -1.7480 C.ar      1 LIG        -0.1150 
     26 C9         -1.9510   32.5650   -3.0490 C.ar      1 LIG         0.1500 
     27 O24        -3.0640   32.6950   -3.8160 O.3       1 LIG        -0.5850 
     28 H15         2.7566   34.9608   -5.1371 H         1 LIG         0.1150 
     29 H191        4.8711   38.3022   -2.5672 H         1 LIG         0.1000 
     30 H192        5.0135   36.9081   -1.4728 H         1 LIG         0.1000 
     31 H22         0.3290   37.4733   -1.5985 H         1 LIG         0.1150 
     32 H20        -0.9121   36.0583   -3.2153 H         1 LIG         0.1150 
     33 HN5        -1.0054   33.5159   -7.9215 H         1 LIG         0.3410 
     34 H10         1.4022   32.9410   -3.2078 H         1 LIG         0.1150 
     35 H261        1.5215   32.1395    0.3063 H         1 LIG         0.0600 
     36 H262        2.4482   32.4660   -1.1352 H         1 LIG         0.0600 
     37 H271        2.8675   30.1179   -0.3727 H         1 LIG         0.0600 
     38 H272        1.1486   29.7643   -0.4420 H         1 LIG         0.0600 
     39 H273        2.0451   30.0933   -1.9213 H         1 LIG         0.0600 
     40 HO25       -1.9025   31.4645    0.6489 H         1 LIG         0.4350 
     41 H11        -3.0281   31.8526   -1.3383 H         1 LIG         0.1150 
     42 HO24       -3.8381   32.3027   -3.4217 H         1 LIG         0.4350 
@<TRIPOS>BOND
     1    1    2 ar   
     2    1    9 ar   
     3    1   28 1    
     4    2    3 1    
     5    2    6 ar   
     6    3    4 1    
     7    4    5 1    
     8    4   29 1    
     9    4   30 1    
    10    5    6 1    
    11    6    7 ar   
    12    7    8 ar   
    13    7   31 1    
    14    8    9 ar   
    15    8   32 1    
    16    9   10 1    
    17   10   11 ar   
    18   10   16 ar   
    19   11   12 1    
    20   11   15 ar   
    21   12   13 2    
    22   12   14 1    
    23   15   17 ar   
    24   15   33 1    
    25   16   17 ar   
    26   16   18 1    
    27   18   19 ar   
    28   18   26 ar   
    29   19   20 ar   
    30   19   34 1    
    31   20   21 1    
    32   20   23 ar   
    33   21   22 1    
    34   21   35 1    
    35   21   36 1    
    36   22   37 1    
    37   22   38 1    
    38   22   39 1    
    39   23   24 1    
    40   23   25 ar   
    41   24   40 1    
    42   25   26 ar   
    43   25   41 1    
    44   26   27 1    
    45   27   42 1    
@<TRIPOS>SUBSTRUCTURE
     1 LIG         1 GROUP             0       ****    0 ROOT    
