:3nx7_ligand
                    3D
 Schrodinger Suite 2020-1.
 35 35  0  0  1  0            999 V2000
   -0.2430   -5.7120   -5.3860 O   0  0  0  0  0  0
   -1.4900   -6.1600   -4.8000 S   0  0  0  0  0  0
   -1.4100   -7.5380   -4.3830 O   0  0  0  0  0  0
   -1.8370   -5.2410   -3.5980 N   0  0  3  0  0  0
   -1.2680   -3.8930   -3.4700 C   0  0  0  0  0  0
   -2.2030   -2.9050   -4.1410 C   0  0  0  0  0  0
   -3.3770   -2.8350   -3.8030 O   0  0  0  0  0  0
   -1.6850   -2.1590   -5.1280 N   0  0  0  0  0  0
   -2.4920   -1.2610   -5.8170 O   0  5  0  0  0  0
   -2.8340   -5.7010   -2.6370 C   0  0  0  0  0  0
   -2.4700   -5.2410   -1.2260 C   0  0  0  0  0  0
   -1.2690   -5.8930   -0.7980 O   0  0  0  0  0  0
   -2.6440   -6.0560   -5.9100 C   0  0  0  0  0  0
   -2.4930   -5.1620   -6.9740 C   0  0  0  0  0  0
   -3.4650   -5.0800   -7.9640 C   0  0  0  0  0  0
   -4.6030   -5.8860   -7.9030 C   0  0  0  0  0  0
   -4.7570   -6.7880   -6.8420 C   0  0  0  0  0  0
   -3.7760   -6.8890   -5.8520 C   0  0  0  0  0  0
   -5.5270   -5.7660   -8.9160 O   0  0  0  0  0  0
   -6.5950   -6.6760   -9.1820 C   0  0  0  0  0  0
   -0.2896   -3.8411   -3.9470 H   0  0  0  0  0  0
   -1.0525   -3.5858   -2.4525 H   0  0  0  0  0  0
   -0.7205   -2.2943   -5.4077 H   0  0  0  0  0  0
   -2.9378   -6.7861   -2.6491 H   0  0  0  0  0  0
   -3.8058   -5.2992   -2.9219 H   0  0  0  0  0  0
   -3.2556   -5.5812   -0.5511 H   0  0  0  0  0  0
   -2.4473   -4.1628   -1.0805 H   0  0  0  0  0  0
   -0.5944   -5.7240   -1.4384 H   0  0  0  0  0  0
   -1.6318   -4.5124   -7.0420 H   0  0  0  0  0  0
   -3.3487   -4.3744   -8.7738 H   0  0  0  0  0  0
   -5.6320   -7.4167   -6.7802 H   0  0  0  0  0  0
   -3.9040   -7.5906   -5.0411 H   0  0  0  0  0  0
   -7.0956   -6.4010  -10.1100 H   0  0  0  0  0  0
   -6.2222   -7.6952   -9.2852 H   0  0  0  0  0  0
   -7.3314   -6.6490   -8.3782 H   0  0  0  0  0  0
  1  2  2  0  0  0
  2  3  2  0  0  0
  2  4  1  0  0  0
  2 13  1  0  0  0
  4  5  1  0  0  0
  4 10  1  0  0  0
  5  6  1  0  0  0
  5 21  1  0  0  0
  5 22  1  0  0  0
  6  7  2  0  0  0
  6  8  1  0  0  0
  8  9  1  0  0  0
  8 23  1  0  0  0
 10 11  1  0  0  0
 10 24  1  0  0  0
 10 25  1  0  0  0
 11 12  1  0  0  0
 11 26  1  0  0  0
 11 27  1  0  0  0
 12 28  1  0  0  0
 13 14  2  0  0  0
 13 18  1  0  0  0
 14 15  1  0  0  0
 14 29  1  0  0  0
 15 16  2  0  0  0
 15 30  1  0  0  0
 16 17  1  0  0  0
 16 19  1  0  0  0
 17 18  2  0  0  0
 17 31  1  0  0  0
 18 32  1  0  0  0
 19 20  1  0  0  0
 20 33  1  0  0  0
 20 34  1  0  0  0
 20 35  1  0  0  0
M  CHG  1   9  -1
M  END
> <s_pdb_PDB_ID>


> <s_pdb_PDB_CLASSIFICATION>
3NX7_PROTEIN

> <s_pdb_PDB_format_version>
3.0

> <b_ppw_prepared>
1

> <s_ppw_prepared_with_version>
2020-1

> <b_ppw_created_disulfur>
1

> <s_ppw_het_states>
eJztkksOgzAMRK8SZQ0odj4QrlJxA9RdV4i7N7FbJum+m6os0NOA4vhpDpvsam7lIb+kwbhtMBVn4ALMF2YHJCADPTAAIxDTMqZlTMvXtOAckIAM9MAAlGmVX9vpYowddb0+KGOpDeqVCAJ09z6IVyDfRAnBjorhLvD4w0sQEEQJEgK5erVEsKSCuAnEAkGeeiMoVHsMkeqQuiAg4PehDLVqlarV0U3l0MPykriUiKY8x3Mw98e+61vMf7lYYyPt36wfaRZPevnD1uuXbpWmMX2UazufgkX99w==

> <r_ff_Potential_Energy-OPLS3e>
-50379.518445152

> <r_ff_RMS_Derivative-OPLS3e>
0.044027165353484

> <b_ff_Minimization_Converged-OPLS3e>
1

> <r_i_Potential_Energy-OPLS_2005>
-3777.55939801324

> <r_i_RMS_Derivative-OPLS_2005>
0.0453919721530871

> <r_i_Max_Derivative-OPLS_2005>
1.50539311227369

> <r_i_Stretch_Energy-OPLS_2005>
3.98016511295232

> <r_i_Bend_Energy-OPLS_2005>
101.913986720479

> <r_i_LJ-14_Energy-OPLS_2005>
196.38255495306

> <r_i_El-14_Energy-OPLS_2005>
-142.51379592852

> <r_i_Van_der_Waals_Energy-OPLS_2005>
-344.150873637122

> <r_i_Electrostatic_Energy-OPLS_2005>
-3630.33252243296

> <r_i_Dihedral_Energy-OPLS_2005>
37.1610871988699

> <r_i_target_temperature>
298

> <s_user_Residue_ID>
_:1

$$$$
