@<TRIPOS>MOLECULE
:3nx7_ligand
35   35    1
SMALL
USER_CHARGES


@<TRIPOS>ATOM
      1 O4         -0.2430   -5.7120   -5.3860 O.2       1 LIG        -0.4680 
      2 S1         -1.4900   -6.1600   -4.8000 S.o2      1 LIG         0.8327 
      3 O3         -1.4100   -7.5380   -4.3830 O.2       1 LIG        -0.4680 
      4 N2         -1.8370   -5.2410   -3.5980 N.pl3     1 LIG        -0.5376 
      5 C10        -1.2680   -3.8930   -3.4700 C.3       1 LIG         0.0955 
      6 C9         -2.2030   -2.9050   -4.1410 C.2       1 LIG         0.3450 
      7 O1         -3.3770   -2.8350   -3.8030 O.2       1 LIG        -0.2225 
      8 N1         -1.6850   -2.1590   -5.1280 N.am      1 LIG        -0.3225 
      9 O2         -2.4920   -1.2610   -5.8170 O.co2     1 LIG        -1.1000 
     10 C8         -2.8340   -5.7010   -2.6370 C.3       1 LIG         0.0588 
     11 C6         -2.4700   -5.2410   -1.2260 C.3       1 LIG         0.1817 
     12 O6         -1.2690   -5.8930   -0.7980 O.3       1 LIG        -0.6830 
     13 C3         -2.6440   -6.0560   -5.9100 C.ar      1 LIG         0.1567 
     14 C5         -2.4930   -5.1620   -6.9740 C.ar      1 LIG        -0.1150 
     15 C7         -3.4650   -5.0800   -7.9640 C.ar      1 LIG        -0.1150 
     16 C4         -4.6030   -5.8860   -7.9030 C.ar      1 LIG         0.0850 
     17 C2         -4.7570   -6.7880   -6.8420 C.ar      1 LIG        -0.1150 
     18 C1         -3.7760   -6.8890   -5.8520 C.ar      1 LIG        -0.1150 
     19 O5         -5.5270   -5.7660   -8.9160 O.3       1 LIG        -0.2850 
     20 C11        -6.5950   -6.6760   -9.1820 C.3       1 LIG         0.1100 
     21 H101       -0.2896   -3.8411   -3.9470 H         1 LIG         0.0733 
     22 H102       -1.0525   -3.5858   -2.4525 H         1 LIG         0.0733 
     23 HN1        -0.7205   -2.2943   -5.4077 H         1 LIG         0.3000 
     24 H81        -2.9378   -6.7861   -2.6491 H         1 LIG         0.0733 
     25 H82        -3.8058   -5.2992   -2.9219 H         1 LIG         0.0733 
     26 H61        -3.2556   -5.5812   -0.5511 H         1 LIG         0.0600 
     27 H62        -2.4473   -4.1628   -1.0805 H         1 LIG         0.0600 
     28 HO6        -0.5944   -5.7240   -1.4384 H         1 LIG         0.4180 
     29 H5         -1.6318   -4.5124   -7.0420 H         1 LIG         0.1150 
     30 H7         -3.3487   -4.3744   -8.7738 H         1 LIG         0.1150 
     31 H2         -5.6320   -7.4167   -6.7802 H         1 LIG         0.1150 
     32 H1         -3.9040   -7.5906   -5.0411 H         1 LIG         0.1150 
     33 H111       -7.0956   -6.4010  -10.1100 H         1 LIG         0.0300 
     34 H112       -6.2222   -7.6952   -9.2852 H         1 LIG         0.0300 
     35 H113       -7.3314   -6.6490   -8.3782 H         1 LIG         0.0300 
@<TRIPOS>BOND
     1    1    2 2    
     2    2    3 2    
     3    2    4 1    
     4    2   13 1    
     5    4    5 1    
     6    4   10 1    
     7    5    6 1    
     8    5   21 1    
     9    5   22 1    
    10    6    7 2    
    11    6    8 am   BACKBONE|DICT|INTERRES
    12    8    9 1    
    13    8   23 1    
    14   10   11 1    
    15   10   24 1    
    16   10   25 1    
    17   11   12 1    
    18   11   26 1    
    19   11   27 1    
    20   12   28 1    
    21   13   14 ar   
    22   13   18 ar   
    23   14   15 ar   
    24   14   29 1    
    25   15   16 ar   
    26   15   30 1    
    27   16   17 ar   
    28   16   19 1    
    29   17   18 ar   
    30   17   31 1    
    31   18   32 1    
    32   19   20 1    
    33   20   33 1    
    34   20   34 1    
    35   20   35 1    
@<TRIPOS>SUBSTRUCTURE
     1 LIG         1 GROUP             0       ****    0 ROOT    
