@<TRIPOS>MOLECULE
:1qkt_ligand
44   47    1
SMALL
USER_CHARGES


@<TRIPOS>ATOM
      1 C1          0.8670   53.1380  165.0150 C.ar      1 LIG        -0.1150 
      2 C2          2.2480   53.1920  164.7900 C.ar      1 LIG        -0.1150 
      3 C3          3.0360   52.0260  164.9340 C.ar      1 LIG         0.1500 
      4 O3          4.3950   52.1060  164.7050 O.3       1 LIG        -0.5850 
      5 C4          2.4410   50.7930  165.3090 C.ar      1 LIG        -0.1150 
      6 C5          1.0210   50.7210  165.5500 C.ar      1 LIG        -0.1150 
      7 C6          0.3830   49.3850  165.9720 C.3       1 LIG        -0.0050 
      8 C7         -1.1480   49.4320  166.2430 C.3       1 LIG        -0.1200 
      9 C8         -1.8940   50.4480  165.3740 C.3       1 LIG        -0.0600 
     10 C9         -1.2990   51.8780  165.6350 C.3       1 LIG         0.0550 
     11 C10         0.2190   51.9220  165.3920 C.ar      1 LIG        -0.1150 
     12 C11        -2.0700   52.8890  164.7620 C.3       1 LIG        -0.1200 
     13 C12        -3.5920   52.8930  164.9630 C.3       1 LIG        -0.1200 
     14 C13        -4.2090   51.5020  164.7630 C.3       1 LIG         0.0000 
     15 C14        -3.4470   50.4920  165.6850 C.3       1 LIG        -0.0600 
     16 C15        -4.3350   49.2580  165.5460 C.3       1 LIG        -0.1200 
     17 C16        -5.7850   49.8370  165.7130 C.3       1 LIG        -0.1200 
     18 C17        -5.6600   51.3340  165.3010 C.3       1 LIG         0.2050 
     19 O17        -6.7310   51.6750  164.3560 O.3       1 LIG        -0.6830 
     20 C18        -4.1860   51.1040  163.2410 C.3       1 LIG        -0.1800 
     21 H1          0.3270   54.0640  164.9265 H         1 LIG         0.1150 
     22 H2          2.6526   54.1617  164.5701 H         1 LIG         0.1150 
     23 HO3         4.6142   52.9155  164.2441 H         1 LIG         0.4350 
     24 H4          3.0483   49.9092  165.4235 H         1 LIG         0.1150 
     25 H61         0.9035   48.9646  166.8289 H         1 LIG         0.0600 
     26 H62         0.5603   48.7015  165.1422 H         1 LIG         0.0600 
     27 H71        -1.3017   49.7050  167.2880 H         1 LIG         0.0600 
     28 H72        -1.5719   48.4345  166.1307 H         1 LIG         0.0600 
     29 H8         -1.7340   50.1717  164.3331 H         1 LIG         0.0600 
     30 H9         -1.4632   52.1468  166.6788 H         1 LIG         0.0600 
     31 H111       -1.8534   52.6805  163.7139 H         1 LIG         0.0600 
     32 H112       -1.7263   53.9035  164.9094 H         1 LIG         0.0600 
     33 H121       -4.0573   53.6161  164.2920 H         1 LIG         0.0600 
     34 H122       -3.8070   53.2422  165.9737 H         1 LIG         0.0600 
     35 H14        -3.5431   50.8296  166.7198 H         1 LIG         0.0600 
     36 H151       -4.1140   48.5126  166.3090 H         1 LIG         0.0600 
     37 H152       -4.2010   48.7636  164.5842 H         1 LIG         0.0600 
     38 H161       -6.1630   49.7361  166.7248 H         1 LIG         0.0600 
     39 H162       -6.4720   49.2917  165.0649 H         1 LIG         0.0600 
     40 H17        -5.7911   51.9471  166.1941 H         1 LIG         0.0600 
     41 HO17       -6.6124   52.5706  164.0795 H         1 LIG         0.4180 
     42 H181       -4.7414   50.1922  163.0229 H         1 LIG         0.0600 
     43 H182       -4.6420   51.8865  162.6339 H         1 LIG         0.0600 
     44 H183       -3.1772   50.9668  162.8561 H         1 LIG         0.0600 
@<TRIPOS>BOND
     1    1    2 ar   
     2    1   11 ar   
     3    1   21 1    
     4    2    3 ar   
     5    2   22 1    
     6    3    4 1    
     7    3    5 ar   
     8    4   23 1    
     9    5    6 ar   
    10    5   24 1    
    11    6    7 1    
    12    6   11 ar   
    13    7    8 1    
    14    7   25 1    
    15    7   26 1    
    16    8    9 1    
    17    8   27 1    
    18    8   28 1    
    19    9   10 1    
    20    9   15 1    
    21    9   29 1    
    22   10   11 1    
    23   10   12 1    
    24   10   30 1    
    25   12   13 1    
    26   12   31 1    
    27   12   32 1    
    28   13   14 1    
    29   13   33 1    
    30   13   34 1    
    31   14   15 1    
    32   14   18 1    
    33   14   20 1    
    34   15   16 1    
    35   15   35 1    
    36   16   17 1    
    37   16   36 1    
    38   16   37 1    
    39   17   18 1    
    40   17   38 1    
    41   17   39 1    
    42   18   19 1    
    43   18   40 1    
    44   19   41 1    
    45   20   42 1    
    46   20   43 1    
    47   20   44 1    
@<TRIPOS>SUBSTRUCTURE
     1 LIG         1 GROUP             0       ****    0 ROOT    
