@<TRIPOS>MOLECULE
:2wbg_ligand
51   52    1
SMALL
USER_CHARGES


@<TRIPOS>ATOM
      1 O4          0.8430    7.5450   14.1690 O.3       1 LIG        -0.6830 
      2 C4          1.6720    6.6330   13.4690 C.3       1 LIG         0.2050 
      3 C5          1.0010    6.2190   12.1540 C.3       1 LIG         0.1110 
      4 C6          0.6600    7.3350   11.1680 C.3       1 LIG         0.1400 
      5 O6          1.0800    6.8220    9.8780 O.3       1 LIG        -0.2850 
      6 C3          1.8340    5.3450   14.2850 C.3       1 LIG         0.2050 
      7 O3          2.3120    5.6540   15.5960 O.3       1 LIG        -0.6830 
      8 C2          2.8750    4.4130   13.6440 C.3       1 LIG         0.2050 
      9 O2          2.8340    3.0940   14.2000 O.3       1 LIG        -0.6830 
     10 C1          2.7120    4.2930   12.1090 C.3       1 LIG         0.3760 
     11 O1          4.0080    4.3370   11.4810 O.3       1 LIG        -0.6830 
     12 N1          1.9430    5.3590   11.4230 N.pl3     1 LIG         0.0998 
     13 C7          1.9110    5.7430   10.0970 C.2       1 LIG         0.3266 
     14 N2          2.5470    5.1310    9.0940 N.pl3     1 LIG        -0.3409 
     15 C8          2.3860    5.3470    7.6500 C.3       1 LIG         0.1924 
     16 C9          3.5960    6.0670    7.0660 C.3       1 LIG        -0.1200 
     17 C10         3.5340    6.1340    5.5330 C.3       1 LIG        -0.1200 
     18 C11         4.7730    6.8200    4.9100 C.3       1 LIG        -0.1200 
     19 C12         4.5550    6.8210    3.3860 C.3       1 LIG        -0.1200 
     20 C13         5.5930    7.6750    2.6270 C.3       1 LIG        -0.1200 
     21 C14         6.9840    7.0190    2.6930 C.3       1 LIG        -0.1200 
     22 C15         7.9430    7.6770    1.6970 C.3       1 LIG        -0.1800 
     23 HO4         0.8592    8.3883   13.7236 H         1 LIG         0.4180 
     24 H4          2.6374    7.1102   13.2913 H         1 LIG         0.0600 
     25 H5          0.0989    5.6526   12.3704 H         1 LIG         0.0600 
     26 H61         1.1907    8.2482   11.3556 H         1 LIG         0.0300 
     27 H62        -0.4085    7.5507   11.1618 H         1 LIG         0.0300 
     28 H3          0.8738    4.8363   14.3868 H         1 LIG         0.0600 
     29 HO3         1.6416    6.1328   16.0665 H         1 LIG         0.4180 
     30 H2          3.8662    4.8154   13.8545 H         1 LIG         0.0600 
     31 HO2         1.9425    2.7590   14.1627 H         1 LIG         0.4180 
     32 H1          2.2524    3.3434   11.8398 H         1 LIG         0.0600 
     33 HO1         4.4802    3.5267   11.6903 H         1 LIG         0.4180 
     34 HN2         3.1910    4.3970    9.3585 H         1 LIG         0.3451 
     35 H81         1.4648    5.8933    7.4582 H         1 LIG         0.0600 
     36 H82         2.2868    4.3719    7.1747 H         1 LIG         0.0600 
     37 H91         4.5033    5.5373    7.3597 H         1 LIG         0.0600 
     38 H92         3.6865    7.0646    7.4921 H         1 LIG         0.0600 
     39 H101        2.6251    6.6531    5.2325 H         1 LIG         0.0600 
     40 H102        3.4472    5.1214    5.1363 H         1 LIG         0.0600 
     41 H111        5.6840    6.2838    5.1766 H         1 LIG         0.0600 
     42 H112        4.8694    7.8389    5.2858 H         1 LIG         0.0600 
     43 H121        3.5673    7.2259    3.1623 H         1 LIG         0.0600 
     44 H122        4.5533    5.7985    3.0077 H         1 LIG         0.0600 
     45 H131        5.6376    8.6738    3.0626 H         1 LIG         0.0600 
     46 H132        5.2949    7.8340    1.5940 H         1 LIG         0.0600 
     47 H141        6.9089    5.9574    2.4538 H         1 LIG         0.0600 
     48 H142        7.3922    7.0874    3.7016 H         1 LIG         0.0600 
     49 H151        8.9301    7.2169    1.7477 H         1 LIG         0.0600 
     50 H152        7.5838    7.5709    0.6726 H         1 LIG         0.0600 
     51 H153        8.0604    8.7408    1.9049 H         1 LIG         0.0600 
@<TRIPOS>BOND
     1    1    2 1    
     2    1   23 1    
     3    2    3 1    
     4    2    6 1    
     5    2   24 1    
     6    3    4 1    
     7    3   12 1    
     8    3   25 1    
     9    4    5 1    
    10    4   26 1    
    11    4   27 1    
    12    5   13 1    
    13    6    7 1    
    14    6    8 1    
    15    6   28 1    
    16    7   29 1    
    17    8    9 1    
    18    8   10 1    
    19    8   30 1    
    20    9   31 1    
    21   10   11 1    
    22   10   12 1    
    23   10   32 1    
    24   11   33 1    
    25   12   13 1    
    26   13   14 2    
    27   14   15 1    
    28   14   34 1    
    29   15   16 1    
    30   15   35 1    
    31   15   36 1    
    32   16   17 1    
    33   16   37 1    
    34   16   38 1    
    35   17   18 1    
    36   17   39 1    
    37   17   40 1    
    38   18   19 1    
    39   18   41 1    
    40   18   42 1    
    41   19   20 1    
    42   19   43 1    
    43   19   44 1    
    44   20   21 1    
    45   20   45 1    
    46   20   46 1    
    47   21   22 1    
    48   21   47 1    
    49   21   48 1    
    50   22   49 1    
    51   22   50 1    
    52   22   51 1    
@<TRIPOS>SUBSTRUCTURE
     1 LIG         1 GROUP             0       ****    0 ROOT    
