@<TRIPOS>MOLECULE
:4ea2_ligand
64   66    1
SMALL
USER_CHARGES


@<TRIPOS>ATOM
      1 CAA       -28.1770  -10.5540   -7.8900 C.3       1 LIG        -0.1800 
      2 CAB       -26.1730  -11.0390   -6.2920 C.3       1 LIG        -0.1800 
      3 CAC       -24.6530  -15.7330   -8.8150 C.3       1 LIG        -0.1800 
      4 CAD       -26.7430  -12.6270   -8.0540 C.2       1 LIG        -0.1150 
      5 CAE       -22.4240  -14.6930   -8.8840 C.2       1 LIG        -0.1150 
      6 CAF       -25.7230  -13.4570   -7.6630 C.3       1 LIG        -0.1200 
      7 CAG       -21.4680  -13.7220   -8.8200 C.3       1 LIG         0.1700 
      8 CAH       -20.1210  -15.6310   -8.2750 C.3       1 LIG         0.1700 
      9 CAI       -21.3150  -16.3980   -7.8140 C.3       1 LIG         0.1700 
     10 CAJ       -24.4350  -13.2160   -8.4240 C.3       1 LIG        -0.1200 
     11 CAK       -23.1400  -20.2180   -5.9240 C.3       1 LIG        -0.1200 
     12 CAL       -21.7110  -19.9430   -7.9030 C.3       1 LIG        -0.1200 
     13 CAM       -24.1020  -20.0310   -8.1940 C.3       1 LIG        -0.1200 
     14 CAN       -21.9710  -18.0740   -6.2480 C.3       1 LIG        -0.1200 
     15 CAO       -24.3890  -18.2130   -6.4920 C.3       1 LIG        -0.1200 
     16 NAP       -20.3520  -14.2200   -8.0310 N.4       1 LIG        -0.2000 
     17 NAQ       -21.6980  -17.2760   -8.8970 N.4       1 LIG        -0.2000 
     18 CAR       -27.0420  -11.4490   -7.4370 C.2       1 LIG         0.0000 
     19 CAS       -23.7750  -14.5320   -8.7170 C.2       1 LIG         0.0000 
     20 CAT       -21.8840  -19.5830   -6.4350 C.3       1 LIG        -0.0600 
     21 CAU       -24.2990  -19.6980   -6.7290 C.3       1 LIG        -0.0600 
     22 CAV       -22.8530  -19.3720   -8.7100 C.3       1 LIG        -0.0600 
     23 CAW       -23.1450  -17.5450   -7.0310 C.3       1 LIG        -0.0600 
     24 CAX       -22.9470  -17.8780   -8.4970 C.3       1 LIG         0.2300 
     25 HAA1      -28.7294  -10.9939   -8.7205 H         1 LIG         0.0600 
     26 HAA2      -28.8687  -10.3528   -7.0720 H         1 LIG         0.0600 
     27 HAA3      -27.7435   -9.6256   -8.2334 H         1 LIG         0.0600 
     28 HAB1      -25.1129  -11.2384   -6.4387 H         1 LIG         0.0600 
     29 HAB2      -26.2581   -9.9625   -6.1406 H         1 LIG         0.0600 
     30 HAB3      -26.5035  -11.5232   -5.3725 H         1 LIG         0.0600 
     31 HAC1      -25.5615  -15.3720   -9.2876 H         1 LIG         0.0600 
     32 HAC2      -24.4126  -16.2289   -9.7384 H         1 LIG         0.0600 
     33 HAC3      -25.0572  -16.2190   -7.9540 H         1 LIG         0.0600 
     34 HAD       -27.3252  -12.9468   -8.9076 H         1 LIG         0.1150 
     35 HAE       -22.2615  -15.3797   -9.6813 H         1 LIG         0.1150 
     36 HAF1      -26.2136  -14.4052   -7.6985 H         1 LIG         0.0600 
     37 HAF2      -25.5022  -13.4033   -6.5974 H         1 LIG         0.0600 
     38 HAG1      -21.7947  -12.7915   -8.3669 H         1 LIG         0.0600 
     39 HAG2      -21.1317  -13.4843   -9.8301 H         1 LIG         0.0600 
     40 HAH1      -19.8679  -15.7847   -9.3281 H         1 LIG         0.0600 
     41 HAH2      -19.1883  -15.8169   -7.7225 H         1 LIG         0.0600 
     42 HAI1      -21.6972  -15.8181   -6.9561 H         1 LIG         0.0600 
     43 HAI2      -20.5111  -17.0882   -7.5604 H         1 LIG         0.0600 
     44 HAJ1      -23.8030  -12.5266   -7.8692 H         1 LIG         0.0600 
     45 HAJ2      -24.6372  -12.7558   -9.3915 H         1 LIG         0.0600 
     46 HAK1      -23.2788  -20.0344   -4.8571 H         1 LIG         0.0600 
     47 HAK2      -23.0634  -21.2920   -6.0556 H         1 LIG         0.0600 
     48 HAL1      -21.7200  -21.0127   -8.0408 H         1 LIG         0.0600 
     49 HAL2      -20.7398  -19.6085   -8.2683 H         1 LIG         0.0600 
     50 HAM1      -24.9776  -19.7188   -8.7607 H         1 LIG         0.0600 
     51 HAM2      -24.0476  -21.1128   -8.3285 H         1 LIG         0.0600 
     52 HAN1      -21.0813  -17.5899   -5.8392 H         1 LIG         0.0600 
     53 HAN2      -22.3584  -17.9915   -5.2314 H         1 LIG         0.0600 
     54 HAO1      -24.5154  -18.0102   -5.4262 H         1 LIG         0.0600 
     55 HAO2      -25.3206  -17.8774   -6.9192 H         1 LIG         0.0600 
     56 HAP1      -20.5626  -14.0991   -7.0512 H         1 LIG         0.3100 
     57 HAP2      -19.5199  -13.6880   -8.2509 H         1 LIG         0.3100 
     58 HAQ1      -20.9986  -17.9944   -9.0196 H         1 LIG         0.3100 
     59 HAQ2      -21.8226  -16.7711   -9.7632 H         1 LIG         0.3100 
     60 HAT       -21.0379  -19.9711   -5.8659 H         1 LIG         0.0600 
     61 HAU       -25.0771  -20.1889   -6.3378 H         1 LIG         0.0600 
     62 HAV       -22.7147  -19.6189   -9.7630 H         1 LIG         0.0600 
     63 HAW       -23.4418  -16.5362   -6.7451 H         1 LIG         0.0600 
     64 HAX       -23.7589  -17.8427   -9.1821 H         1 LIG         0.0600 
@<TRIPOS>BOND
     1    1   18 1    
     2    1   25 1    
     3    1   26 1    
     4    1   27 1    
     5    2   18 1    
     6    2   28 1    
     7    2   29 1    
     8    2   30 1    
     9    3   19 1    
    10    3   31 1    
    11    3   32 1    
    12    3   33 1    
    13    4    6 1    
    14    4   18 2    
    15    4   34 1    
    16    5    7 1    
    17    5   19 2    
    18    5   35 1    
    19    6   10 1    
    20    6   36 1    
    21    6   37 1    
    22    7   16 1    
    23    7   38 1    
    24    7   39 1    
    25    8    9 1    
    26    8   16 1    
    27    8   40 1    
    28    8   41 1    
    29    9   17 1    
    30    9   42 1    
    31    9   43 1    
    32   10   19 1    
    33   10   44 1    
    34   10   45 1    
    35   11   20 1    
    36   11   21 1    
    37   11   46 1    
    38   11   47 1    
    39   12   20 1    
    40   12   22 1    
    41   12   48 1    
    42   12   49 1    
    43   13   21 1    
    44   13   22 1    
    45   13   50 1    
    46   13   51 1    
    47   14   20 1    
    48   14   23 1    
    49   14   52 1    
    50   14   53 1    
    51   15   21 1    
    52   15   23 1    
    53   15   54 1    
    54   15   55 1    
    55   16   56 1    
    56   16   57 1    
    57   17   24 1    
    58   17   58 1    
    59   17   59 1    
    60   20   60 1    
    61   21   61 1    
    62   22   24 1    
    63   22   62 1    
    64   23   24 1    
    65   23   63 1    
    66   24   64 1    
@<TRIPOS>SUBSTRUCTURE
     1 LIG         1 GROUP             0       ****    0 ROOT    
