@<TRIPOS>MOLECULE
:4j21_ligand
33   35    1
SMALL
USER_CHARGES


@<TRIPOS>ATOM
      1 C4        -12.4600    1.8530   14.2040 C.ar      1 LIG         0.5567 
      2 C8        -12.1000    2.5450   11.9470 C.ar      1 LIG         0.0850 
      3 C10       -11.7770    3.2110    9.6340 C.ar      1 LIG         0.0000 
      4 C13       -10.2290    3.1630    6.1770 C.ar      1 LIG        -0.1150 
      5 C17       -12.5250    2.0800    7.4540 C.ar      1 LIG         0.1800 
      6 C20       -11.9010    4.9090   11.3700 C.ar      1 LIG        -0.1150 
      7 C21       -12.0880    3.9300   12.3750 C.ar      1 LIG         0.0000 
      8 C1        -12.3270    5.7480   14.3470 C.3       1 LIG        -0.1800 
      9 C2        -12.2830    4.2770   13.8120 C.ar      1 LIG         0.0000 
     10 C3        -12.4580    3.2350   14.6730 C.ar      1 LIG        -0.1717 
     11 O5        -12.6530    0.9230   15.0080 O.2       1 LIG        -0.5000 
     12 N6        -12.2920    1.5530   12.8830 N.pl3     1 LIG        -0.3850 
     13 C9        -11.9290    2.2080   10.6070 C.ar      1 LIG        -0.1150 
     14 C11       -11.5820    2.8860    8.1800 C.ar      1 LIG         0.0000 
     15 C12       -10.4410    3.4030    7.5190 C.ar      1 LIG        -0.1150 
     16 C14       -11.1640    2.4040    5.4830 C.ar      1 LIG         0.1800 
     17 N15       -10.9630    2.1650    4.1270 N.pl3     1 LIG        -0.9000 
     18 C16       -12.2980    1.8580    6.1040 C.ar      1 LIG        -0.1150 
     19 CL        -13.9790    1.4080    8.1850 Cl        1 LIG        -0.1800 
     20 C19       -11.7290    4.5470   10.0440 C.ar      1 LIG        -0.1150 
     21 H13        -9.3668    3.5554    5.6691 H         1 LIG         0.1150 
     22 H20       -11.8964    5.9541   11.6372 H         1 LIG         0.1150 
     23 H11       -12.3771    5.7651   15.4352 H         1 LIG         0.0600 
     24 H12       -11.4587    6.3147   14.0264 H         1 LIG         0.0600 
     25 H13       -13.2063    6.2617   13.9628 H         1 LIG         0.0600 
     26 H3        -12.6125    3.4279   15.7248 H         1 LIG         0.1150 
     27 HN6       -12.3321    0.5920   12.5670 H         1 LIG         0.3000 
     28 H9        -11.9331    1.1693   10.3086 H         1 LIG         0.1150 
     29 H12        -9.7160    3.9848    8.0653 H         1 LIG         0.1150 
     30 H151      -11.5602    1.5329    3.6140 H         1 LIG         0.3600 
     31 H152      -10.0934    2.4226    3.6815 H         1 LIG         0.3600 
     32 H16       -13.0008    1.2670    5.5345 H         1 LIG         0.1150 
     33 H19       -11.6124    5.3163    9.2990 H         1 LIG         0.1150 
@<TRIPOS>BOND
     1    1   10 ar   
     2    1   11 2    
     3    1   12 ar   
     4    2    7 ar   
     5    2   12 ar   
     6    2   13 ar   
     7    3   13 ar   
     8    3   14 1    
     9    3   20 ar   
    10    4   15 ar   
    11    4   16 ar   
    12    4   21 1    
    13    5   14 ar   
    14    5   18 ar   
    15    5   19 1    
    16    6    7 ar   
    17    6   20 ar   
    18    6   22 1    
    19    7    9 ar   
    20    8    9 1    
    21    8   23 1    
    22    8   24 1    
    23    8   25 1    
    24    9   10 ar   
    25   10   26 1    
    26   12   27 1    
    27   13   28 1    
    28   14   15 ar   
    29   15   29 1    
    30   16   17 1    
    31   16   18 ar   
    32   17   30 1    
    33   17   31 1    
    34   18   32 1    
    35   20   33 1    
@<TRIPOS>SUBSTRUCTURE
     1 LIG         1 GROUP             0       ****    0 ROOT    
