@<TRIPOS>MOLECULE
:3nq9_ligand
25   24    1
SMALL
USER_CHARGES


@<TRIPOS>ATOM
      1 C1         -3.1830   -3.2620  -17.0780 C.2       1 LIG         0.7000 
      2 C2         -2.6540   -4.5610  -17.6350 C.3       1 LIG        -0.2200 
      3 C3         -3.8030   -5.5260  -17.9290 C.3       1 LIG        -0.1200 
      4 C4         -3.9210   -6.5870  -16.8450 C.3       1 LIG        -0.1200 
      5 C5         -5.3290   -7.1720  -16.8130 C.3       1 LIG        -0.1200 
      6 C6         -5.7850   -7.6230  -18.1890 C.3       1 LIG        -0.1200 
      7 C7         -7.3050   -7.7030  -18.2680 C.3       1 LIG        -0.1200 
      8 C8         -7.7110   -9.0490  -18.8230 C.3       1 LIG        -0.1800 
      9 O1         -4.3080   -2.8480  -17.4500 O.co2     1 LIG        -0.8000 
     10 O2         -2.4750   -2.6460  -16.2560 O.co2     1 LIG        -0.8000 
     11 H21        -1.9097   -4.9979  -16.9674 H         1 LIG         0.0600 
     12 H22        -2.1351   -4.3187  -18.5628 H         1 LIG         0.0600 
     13 H31        -3.5627   -6.0177  -18.8723 H         1 LIG         0.0600 
     14 H32        -4.7617   -5.0376  -18.1022 H         1 LIG         0.0600 
     15 H41        -3.7166   -6.1493  -15.8666 H         1 LIG         0.0600 
     16 H42        -3.1777   -7.3702  -16.9985 H         1 LIG         0.0600 
     17 H51        -5.9839   -6.3692  -16.4777 H         1 LIG         0.0600 
     18 H52        -5.3788   -7.9416  -16.0574 H         1 LIG         0.0600 
     19 H61        -5.3179   -8.5866  -18.3991 H         1 LIG         0.0600 
     20 H62        -5.4847   -6.9811  -19.0124 H         1 LIG         0.0600 
     21 H71        -7.7026   -6.8960  -18.8855 H         1 LIG         0.0600 
     22 H72        -7.7599   -7.5905  -17.2828 H         1 LIG         0.0600 
     23 H81        -8.7954   -9.1485  -18.8193 H         1 LIG         0.0600 
     24 H82        -7.3608   -9.1851  -19.8430 H         1 LIG         0.0600 
     25 H83        -7.3368   -9.8534  -18.2152 H         1 LIG         0.0600 
@<TRIPOS>BOND
     1    1    2 1    
     2    1    9 2    
     3    1   10 1    
     4    2    3 1    
     5    2   11 1    
     6    2   12 1    
     7    3    4 1    
     8    3   13 1    
     9    3   14 1    
    10    4    5 1    
    11    4   15 1    
    12    4   16 1    
    13    5    6 1    
    14    5   17 1    
    15    5   18 1    
    16    6    7 1    
    17    6   19 1    
    18    6   20 1    
    19    7    8 1    
    20    7   21 1    
    21    7   22 1    
    22    8   23 1    
    23    8   24 1    
    24    8   25 1    
@<TRIPOS>SUBSTRUCTURE
     1 LIG         1 GROUP             0       ****    0 ROOT    
