@<TRIPOS>MOLECULE
:3u8k_ligand
36   37    1
SMALL
USER_CHARGES


@<TRIPOS>ATOM
      1 C1         86.6930   73.0480  -11.1600 C.3       1 LIG         0.1700 
      2 N1         85.7680   73.2550  -12.2950 N.4       1 LIG        -0.2000 
      3 C2         85.5720   72.1350  -13.2520 C.3       1 LIG         0.1700 
      4 C3         84.7560   70.9770  -12.6430 C.3       1 LIG        -0.1200 
      5 C4         85.3070   70.4590  -11.3050 C.3       1 LIG         0.0900 
      6 N2         84.9650   71.3970  -10.2220 N.pl3     1 LIG        -0.6200 
      7 C5         86.0170   72.4000   -9.9310 C.3       1 LIG         0.0900 
      8 C6         81.4190   71.3480   -8.1490 C.ar      1 LIG         0.4730 
      9 C7         81.4940   70.5360   -9.2920 C.ar      1 LIG        -0.1920 
     10 C8         82.7190   70.5510  -10.0070 C.ar      1 LIG         0.2270 
     11 C9         83.7910   71.3550   -9.5570 C.ar      1 LIG        -0.0920 
     12 C10        83.5700   72.1210   -8.3930 C.ar      1 LIG         0.4730 
     13 N3         82.4150   72.1230   -7.7030 N.ar      1 LIG        -0.6780 
     14 O1         80.3620   69.8160   -9.6520 O.3       1 LIG        -0.3000 
     15 C11        80.2580   69.2650  -10.9650 C.3       1 LIG         0.1400 
     16 C12        80.1880   67.7460  -10.8330 C.3       1 LIG        -0.1800 
     17 H11        87.1275   74.0010  -10.8877 H         1 LIG         0.0600 
     18 H12        87.5266   72.4327  -11.4983 H         1 LIG         0.0600 
     19 H11        86.1578   74.0180  -12.8357 H         1 LIG         0.3100 
     20 H12        84.8681   73.5489  -11.9325 H         1 LIG         0.3100 
     21 H21        86.5498   71.7803  -13.5687 H         1 LIG         0.0600 
     22 H22        85.0836   72.5378  -14.1314 H         1 LIG         0.0600 
     23 H31        84.7548   70.1530  -13.3565 H         1 LIG         0.0600 
     24 H32        83.7149   71.2822  -12.5382 H         1 LIG         0.0600 
     25 H41        86.3873   70.3205  -11.3659 H         1 LIG         0.0600 
     26 H42        84.9106   69.4684  -11.0824 H         1 LIG         0.0600 
     27 H51        85.5697   73.2413   -9.4153 H         1 LIG         0.0600 
     28 H52        86.7649   71.9817   -9.2570 H         1 LIG         0.0600 
     29 H6         80.5069   71.3812   -7.5708 H         1 LIG         0.0120 
     30 H8         82.8459   69.9296  -10.8755 H         1 LIG         0.0650 
     31 H10        84.3424   72.7062   -7.9305 H         1 LIG         0.0120 
     32 H111       81.0263   69.5684  -11.6653 H         1 LIG         0.0300 
     33 H112       79.3238   69.6270  -11.3948 H         1 LIG         0.0300 
     34 H121       80.0611   67.2866  -11.8135 H         1 LIG         0.0600 
     35 H122       81.1019   67.3411  -10.4039 H         1 LIG         0.0600 
     36 H123       79.3419   67.4376  -10.2185 H         1 LIG         0.0600 
@<TRIPOS>BOND
     1    1    2 1    
     2    1    7 1    
     3    1   17 1    
     4    1   18 1    
     5    2    3 1    
     6    2   19 1    
     7    2   20 1    
     8    3    4 1    
     9    3   21 1    
    10    3   22 1    
    11    4    5 1    
    12    4   23 1    
    13    4   24 1    
    14    5    6 1    
    15    5   25 1    
    16    5   26 1    
    17    6    7 1    
    18    6   11 1    
    19    7   27 1    
    20    7   28 1    
    21    8    9 ar   
    22    8   13 ar   
    23    8   29 1    
    24    9   10 ar   
    25    9   14 1    
    26   10   11 ar   
    27   10   30 1    
    28   11   12 ar   
    29   12   13 ar   
    30   12   31 1    
    31   14   15 1    
    32   15   16 1    
    33   15   32 1    
    34   15   33 1    
    35   16   34 1    
    36   16   35 1    
    37   16   36 1    
@<TRIPOS>SUBSTRUCTURE
     1 LIG         1 GROUP             0       ****    0 ROOT    
