@<TRIPOS>MOLECULE
:3zso_ligand
78   82    1
SMALL
USER_CHARGES


@<TRIPOS>ATOM
      1 C1        -11.1980   48.6360    5.7650 C.ar      1 LIG        -0.1150 
      2 C2        -12.1670   49.3520    5.0980 C.ar      1 LIG        -0.1150 
      3 C3        -10.1340   48.1430    5.0200 C.ar      1 LIG        -0.1150 
      4 C4        -12.0970   49.5930    3.7350 C.ar      1 LIG        -0.1150 
      5 C5        -11.4330   45.7610   -1.7080 C.ar      1 LIG        -0.1150 
      6 C6         -7.5110   45.0570   -0.0520 C.ar      1 LIG        -0.1150 
      7 C7         -9.0860   44.1280    1.4740 C.ar      1 LIG        -0.1150 
      8 C8         -5.2450   45.7400    3.4850 C.ar      1 LIG        -0.1150 
      9 C9         -6.8620   44.1580    4.2050 C.ar      1 LIG        -0.1150 
     10 C10       -12.1820   45.0440   -2.6950 C.ar      1 LIG        -0.1150 
     11 C11        -8.0190   44.2790   -1.1000 C.ar      1 LIG        -0.1150 
     12 C12        -9.6300   43.3030    0.4780 C.ar      1 LIG        -0.1150 
     13 C13        -4.3690   45.1910    4.4190 C.ar      1 LIG        -0.1150 
     14 C14        -5.9900   43.5460    5.1380 C.ar      1 LIG        -0.1150 
     15 C15       -10.0470   48.3700    3.6580 C.ar      1 LIG        -0.1150 
     16 C16       -13.3770   45.9810   -0.2340 C.ar      1 LIG        -0.1150 
     17 C17        -8.0280   44.9890    1.2360 C.ar      1 LIG        -0.1150 
     18 C18        -6.5240   45.2110    3.3620 C.ar      1 LIG        -0.1150 
     19 C19       -11.0350   49.1020    3.0010 C.ar      1 LIG        -0.1150 
     20 C20       -12.0130   46.2190   -0.4920 C.ar      1 LIG        -0.1150 
     21 C21       -13.5130   44.8600   -2.4080 C.ar      1 LIG         0.0850 
     22 C22       -14.0810   45.2910   -1.2220 C.ar      1 LIG         0.0850 
     23 C23        -9.0620   43.3710   -0.7840 C.ar      1 LIG         0.0850 
     24 C24        -4.7340   44.1160    5.2220 C.ar      1 LIG         0.0850 
     25 C25       -10.1880   50.4690   -1.8410 C.2       1 LIG        -0.2300 
     26 C26       -10.5950   49.2370   -1.4870 C.2       1 LIG        -0.1150 
     27 C27        -8.8760   47.8470    2.9210 C.2       1 LIG         0.6150 
     28 C28       -14.1030   46.3470    1.0410 C.2       1 LIG         0.7150 
     29 C29       -15.6260   44.2650   -2.3770 C.3       1 LIG         0.2000 
     30 C30       -10.0940   41.2730   -1.5770 C.3       1 LIG         0.1100 
     31 C31        -4.2950   42.9450    7.2050 C.3       1 LIG         0.1100 
     32 C32       -10.9890   49.4020    1.5390 C.3       1 LIG         0.2650 
     33 C33       -11.2370   46.9690    0.5810 C.3       1 LIG         0.2650 
     34 C34       -11.8720   49.0400   -0.7170 C.3       1 LIG         0.1500 
     35 C35        -7.4560   45.8790    2.3540 C.3       1 LIG         0.3700 
     36 N36        -8.5540   46.4980    3.0730 N.am      1 LIG        -0.5000 
     37 N37       -11.7660   48.4410    0.6520 N.4       1 LIG        -0.1000 
     38 O38       -14.9210   45.4650    1.4580 O.co2     1 LIG        -0.8000 
     39 O39        -8.2340   48.6430    2.2300 O.2       1 LIG        -0.5000 
     40 O40       -13.8560   47.3660    1.7630 O.co2     1 LIG        -0.8000 
     41 O41       -14.4350   44.2300   -3.1870 O.3       1 LIG        -0.2850 
     42 O42       -15.4470   44.9910   -1.1430 O.3       1 LIG        -0.2850 
     43 O43        -9.5610   42.5890   -1.8390 O.3       1 LIG        -0.2850 
     44 O44        -3.7480   43.6550    6.0940 O.3       1 LIG        -0.2850 
     45 H1        -11.2676   48.4570    6.8277 H         1 LIG         0.1150 
     46 H2        -13.0083   49.7382    5.6547 H         1 LIG         0.1150 
     47 H3         -9.3650   47.5796    5.5300 H         1 LIG         0.1150 
     48 H4        -12.8781   50.1643    3.2551 H         1 LIG         0.1150 
     49 H5        -10.3844   45.9415   -1.8892 H         1 LIG         0.1150 
     50 H6         -6.7108   45.7500   -0.2614 H         1 LIG         0.1150 
     51 H7         -9.5142   44.0676    2.4625 H         1 LIG         0.1150 
     52 H8         -4.9196   46.5719    2.8775 H         1 LIG         0.1150 
     53 H9         -7.8530   43.7419    4.1150 H         1 LIG         0.1150 
     54 H10       -11.7343   44.6861   -3.6093 H         1 LIG         0.1150 
     55 H11        -7.6186   44.3448   -2.0982 H         1 LIG         0.1150 
     56 H12       -10.4441   42.6342    0.7047 H         1 LIG         0.1150 
     57 H13        -3.3763   45.6062    4.5136 H         1 LIG         0.1150 
     58 H14        -6.3085   42.7067    5.6983 H         1 LIG         0.1150 
     59 H251       -9.2711   50.6061   -2.3951 H         1 LIG         0.1150 
     60 H252      -10.7611   51.3500   -1.5914 H         1 LIG         0.1150 
     61 H26       -10.0120   48.3673   -1.7521 H         1 LIG         0.1150 
     62 H291      -15.9208   43.2411   -2.1438 H         1 LIG         0.1000 
     63 H292      -16.4249   44.7357   -2.9501 H         1 LIG         0.1000 
     64 H301      -10.2014   40.7239   -2.5072 H         1 LIG         0.0300 
     65 H302       -9.4305   40.7042   -0.9246 H         1 LIG         0.0300 
     66 H303      -11.0796   41.3375   -1.1157 H         1 LIG         0.0300 
     67 H311       -3.5198   42.8412    7.9637 H         1 LIG         0.0300 
     68 H312       -5.1290   43.4670    7.6755 H         1 LIG         0.0300 
     69 H313       -4.5889   41.9348    6.9207 H         1 LIG         0.0300 
     70 H321      -10.0029   49.5846    1.1296 H         1 LIG         0.0600 
     71 H322      -11.4633   50.3789    1.4317 H         1 LIG         0.0600 
     72 H331      -10.1779   46.9744    0.3218 H         1 LIG         0.0600 
     73 H332      -11.3215   46.4723    1.5486 H         1 LIG         0.0600 
     74 H341      -12.5647   48.4735   -1.3291 H         1 LIG         0.0600 
     75 H342      -12.3706   50.0049   -0.6118 H         1 LIG         0.0600 
     76 H35        -6.8734   46.6489    1.8459 H         1 LIG         0.0600 
     77 HN36       -9.1137   45.9170    3.6847 H         1 LIG         0.3000 
     78 HN37      -12.7044   48.3672    1.0362 H         1 LIG         0.2900 
@<TRIPOS>BOND
     1    1    2 ar   
     2    1    3 ar   
     3    1   45 1    
     4    2    4 ar   
     5    2   46 1    
     6    3   15 ar   
     7    3   47 1    
     8    4   19 ar   
     9    4   48 1    
    10    5   10 ar   
    11    5   20 ar   
    12    5   49 1    
    13    6   11 ar   
    14    6   17 ar   
    15    6   50 1    
    16    7   12 ar   
    17    7   17 ar   
    18    7   51 1    
    19    8   13 ar   
    20    8   18 ar   
    21    8   52 1    
    22    9   14 ar   
    23    9   18 ar   
    24    9   53 1    
    25   10   21 ar   
    26   10   54 1    
    27   11   23 ar   
    28   11   55 1    
    29   12   23 ar   
    30   12   56 1    
    31   13   24 ar   
    32   13   57 1    
    33   14   24 ar   
    34   14   58 1    
    35   15   19 ar   
    36   15   27 1    
    37   16   20 ar   
    38   16   22 ar   
    39   16   28 1    
    40   17   35 1    
    41   18   35 1    
    42   19   32 1    
    43   20   33 1    
    44   21   22 ar   
    45   21   41 1    
    46   22   42 1    
    47   23   43 1    
    48   24   44 1    
    49   25   26 2    
    50   25   59 1    
    51   25   60 1    
    52   26   34 1    
    53   26   61 1    
    54   27   36 am   BACKBONE|DICT|INTERRES
    55   27   39 2    
    56   28   38 2    
    57   28   40 1    
    58   29   41 1    
    59   29   42 1    
    60   29   62 1    
    61   29   63 1    
    62   30   43 1    
    63   30   64 1    
    64   30   65 1    
    65   30   66 1    
    66   31   44 1    
    67   31   67 1    
    68   31   68 1    
    69   31   69 1    
    70   32   37 1    
    71   32   70 1    
    72   32   71 1    
    73   33   37 1    
    74   33   72 1    
    75   33   73 1    
    76   34   37 1    
    77   34   74 1    
    78   34   75 1    
    79   35   36 1    
    80   35   76 1    
    81   36   77 1    
    82   37   78 1    
@<TRIPOS>SUBSTRUCTURE
     1 LIG         1 GROUP             0       ****    0 ROOT    
