@<TRIPOS>MOLECULE
:5a7b_ligand
64   66    1
SMALL
USER_CHARGES


@<TRIPOS>ATOM
      1 C          92.2320   93.8370  -40.8630 C.1       1 LIG        -0.2100 
      2 O          90.8200   89.7810  -48.9600 O.3       1 LIG        -0.2850 
      3 C01        91.4600   93.2740  -45.6560 C.ar      1 LIG         0.1164 
      4 C1         90.8150   95.5820  -45.1930 C.ar      1 LIG        -0.1150 
      5 N1         90.7820   98.1240  -44.9610 N.3       1 LIG        -0.6300 
      6 O1         90.9920   96.4090  -42.9400 O.3       1 LIG        -0.5850 
      7 C02        91.7950   93.0810  -44.3150 C.ar      1 LIG        -0.1150 
      8 C2         90.2820   96.8960  -45.7060 C.3       1 LIG         0.2050 
      9 N2         92.1190  102.2070  -44.2090 N.4       1 LIG        -0.1000 
     10 C03        89.7810   99.2390  -45.0750 C.3       1 LIG         0.0900 
     11 C3         90.9810   94.5150  -46.0930 C.ar      1 LIG        -0.1150 
     12 C04        91.6360   92.2010  -46.5890 C.1       1 LIG        -0.1164 
     13 C4         91.6320   94.1340  -43.4090 C.ar      1 LIG         0.1164 
     14 C05        91.8060   91.3290  -47.3990 C.1       1 LIG         0.0000 
     15 C06        92.0360   90.2460  -48.3690 C.3       1 LIG         0.1400 
     16 C07        90.2430   90.5730  -49.9090 C.ar      1 LIG         0.0850 
     17 C7         91.1500   95.3720  -43.8410 C.ar      1 LIG         0.1500 
     18 C08        88.9820   90.1520  -50.3460 C.ar      1 LIG        -0.1150 
     19 C8         90.2770  100.4560  -44.3060 C.3       1 LIG        -0.1200 
     20 C09        88.2910   90.8840  -51.3140 C.ar      1 LIG        -0.1150 
     21 C10        91.6380  100.8890  -44.8430 C.3       1 LIG         0.2100 
     22 C11        90.9750  103.0080  -43.5790 C.3       1 LIG         0.1500 
     23 C12        90.4110  103.9980  -44.5850 C.3       1 LIG        -0.1800 
     24 C13        93.3010  102.1080  -43.2520 C.3       1 LIG         0.1500 
     25 C14        93.6020  103.4750  -42.6610 C.3       1 LIG        -0.1800 
     26 C15        92.6570   99.7580  -44.6600 C.3       1 LIG        -0.1200 
     27 C16        92.1760   98.5070  -45.3870 C.3       1 LIG         0.0900 
     28 C17        88.8610   92.0370  -51.8470 C.ar      1 LIG        -0.1150 
     29 C18        90.1190   92.4610  -51.4160 C.ar      1 LIG        -0.1150 
     30 C19        90.8110   91.7270  -50.4460 C.ar      1 LIG        -0.1150 
     31 C20        91.9660   93.9530  -42.0280 C.1       1 LIG        -0.1064 
     32 HXT        92.4938   93.3720  -39.9592 H         1 LIG         0.2000 
     33 HO1        90.7755   97.2149  -43.3939 H         1 LIG         0.4350 
     34 H02        92.1625   92.1266  -43.9719 H         1 LIG         0.1150 
     35 H21        89.2021   96.8369  -45.5668 H         1 LIG         0.0600 
     36 H22        90.4246   97.0057  -46.7747 H         1 LIG         0.0600 
     37 HN2        92.4676  102.7711  -44.9710 H         1 LIG         0.2900 
     38 H031       88.8190   98.9128  -44.6775 H         1 LIG         0.0600 
     39 H032       89.6313   99.4873  -46.1268 H         1 LIG         0.0600 
     40 H3         90.7142   94.6570  -47.1295 H         1 LIG         0.1150 
     41 H061       92.7604   90.5304  -49.1182 H         1 LIG         0.0300 
     42 H062       92.5276   89.4309  -47.8471 H         1 LIG         0.0300 
     43 H08        88.5385   89.2585  -49.9310 H         1 LIG         0.1150 
     44 H81        90.3144  100.2339  -43.2377 H         1 LIG         0.0600 
     45 H82        89.4986  101.1958  -44.4899 H         1 LIG         0.0600 
     46 H09        87.3172   90.5566  -51.6470 H         1 LIG         0.1150 
     47 H10        91.5310  101.0952  -45.9091 H         1 LIG         0.0600 
     48 H111       91.2670  103.6726  -42.7789 H         1 LIG         0.0600 
     49 H112       90.2130  102.4617  -43.0315 H         1 LIG         0.0600 
     50 H121       89.6274  104.6077  -44.1342 H         1 LIG         0.0600 
     51 H122       91.1843  104.6725  -44.9543 H         1 LIG         0.0600 
     52 H123       89.9760  103.4853  -45.4433 H         1 LIG         0.0600 
     53 H131       94.1742  101.7383  -43.7421 H         1 LIG         0.0600 
     54 H132       93.0761  101.4173  -42.4383 H         1 LIG         0.0600 
     55 H141       94.6483  103.5028  -42.3546 H         1 LIG         0.0600 
     56 H142       93.4720  104.2869  -43.3781 H         1 LIG         0.0600 
     57 H143       93.0428  103.6863  -41.7495 H         1 LIG         0.0600 
     58 H151       92.8052   99.5102  -43.6086 H         1 LIG         0.0600 
     59 H152       93.6177  100.0328  -45.0801 H         1 LIG         0.0600 
     60 H161       92.1725   98.6975  -46.4604 H         1 LIG         0.0600 
     61 H162       92.8558   97.6730  -45.2229 H         1 LIG         0.0600 
     62 H17        88.3283   92.6048  -52.5956 H         1 LIG         0.1150 
     63 H18        90.5592   93.3559  -51.8304 H         1 LIG         0.1150 
     64 H19        91.7702   92.1006  -50.1404 H         1 LIG         0.1150 
@<TRIPOS>BOND
     1    1   31 3    
     2    1   32 1    
     3    2   15 1    
     4    2   16 1    
     5    3    7 ar   
     6    3   11 ar   
     7    3   12 1    
     8    4    8 1    
     9    4   11 ar   
    10    4   17 ar   
    11    5    8 1    
    12    5   10 1    
    13    5   27 1    
    14    6   17 1    
    15    6   33 1    
    16    7   13 ar   
    17    7   34 1    
    18    8   35 1    
    19    8   36 1    
    20    9   21 1    
    21    9   22 1    
    22    9   24 1    
    23    9   37 1    
    24   10   19 1    
    25   10   38 1    
    26   10   39 1    
    27   11   40 1    
    28   12   14 3    
    29   13   17 ar   
    30   13   31 1    
    31   14   15 1    
    32   15   41 1    
    33   15   42 1    
    34   16   18 ar   
    35   16   30 ar   
    36   18   20 ar   
    37   18   43 1    
    38   19   21 1    
    39   19   44 1    
    40   19   45 1    
    41   20   28 ar   
    42   20   46 1    
    43   21   26 1    
    44   21   47 1    
    45   22   23 1    
    46   22   48 1    
    47   22   49 1    
    48   23   50 1    
    49   23   51 1    
    50   23   52 1    
    51   24   25 1    
    52   24   53 1    
    53   24   54 1    
    54   25   55 1    
    55   25   56 1    
    56   25   57 1    
    57   26   27 1    
    58   26   58 1    
    59   26   59 1    
    60   27   60 1    
    61   27   61 1    
    62   28   29 ar   
    63   28   62 1    
    64   29   30 ar   
    65   29   63 1    
    66   30   64 1    
@<TRIPOS>SUBSTRUCTURE
     1 LIG         1 GROUP             0       ****    0 ROOT    
