@<TRIPOS>MOLECULE
:3jvs_ligand
52   54    1
SMALL
USER_CHARGES


@<TRIPOS>ATOM
      1 C1         33.9930   -2.1240   17.6380 C.ar      1 LIG         0.0000 
      2 N1         31.4940   -2.4220   17.7810 N.am      1 LIG        -0.4727 
      3 O1         31.3890   -3.6210   15.8520 O.2       1 LIG        -0.6163 
      4 C2         32.6240   -1.6310   17.5880 C.ar      1 LIG         0.1066 
      5 N2         29.7930   -4.0180   17.3470 N.am      1 LIG        -0.4225 
      6 O2         30.4340   -5.4590   19.4010 O.2       1 LIG        -0.5000 
      7 C3         35.1360   -1.1870   17.4150 C.ar      1 LIG         0.0000 
      8 N3         29.1370   -3.8040   18.6060 N.am      1 LIG        -0.3000 
      9 O3         24.8190   -4.7610   22.6990 O.co2     1 LIG        -0.3700 
     10 C4         34.2740   -3.5170   17.9020 C.ar      1 LIG        -0.1150 
     11 N4         25.6450   -3.8090   22.3680 N.pl3     1 LIG         0.6500 
     12 O4         25.1680   -2.5480   22.0310 O.co2     1 LIG        -0.3700 
     13 C5         32.4120   -0.2110   17.3180 C.ar      1 LIG        -0.1150 
     14 C6         34.8990    0.2110   17.1500 C.ar      1 LIG        -0.1150 
     15 C7         36.4760   -1.6760   17.4650 C.ar      1 LIG        -0.1150 
     16 C8         35.6370   -3.9930   17.9490 C.ar      1 LIG        -0.1150 
     17 C9         33.5260    0.7020   17.1010 C.ar      1 LIG        -0.1150 
     18 C10        30.9160   -3.3510   16.9640 C.2       1 LIG         0.8137 
     19 C11        36.7350   -3.0780   17.7320 C.ar      1 LIG        -0.1150 
     20 C12        29.5470   -4.6110   19.6220 C.2       1 LIG         0.6150 
     21 C13        28.9510   -4.4900   20.9510 C.ar      1 LIG        -0.1150 
     22 C14        27.5800   -4.1810   21.0710 C.ar      1 LIG        -0.1150 
     23 C15        29.7350   -4.6820   22.1300 C.ar      1 LIG        -0.1150 
     24 C16        26.9430   -4.0570   22.3480 C.ar      1 LIG         0.0900 
     25 C17        29.1390   -4.5650   23.4400 C.ar      1 LIG        -0.1150 
     26 C18        27.7090   -4.2430   23.5950 C.ar      1 LIG        -0.1150 
     27 C19        27.1220   -4.1330   25.0240 C.3       1 LIG         0.1150 
     28 C20        28.0260   -3.3630   26.0170 C.3       1 LIG        -0.1800 
     29 C21        25.7950   -3.3270   25.2910 C.3       1 LIG        -0.1800 
     30 C22        26.8120   -5.5700   25.4860 C.3       1 LIG        -0.1800 
     31 HN1        30.9805   -2.2219   18.6296 H         1 LIG         0.2912 
     32 HN2        29.3185   -4.7115   16.7865 H         1 LIG         0.3000 
     33 HN3        28.4362   -3.0725   18.6065 H         1 LIG         0.3000 
     34 H4         33.4705   -4.2182   18.0713 H         1 LIG         0.1150 
     35 H5         31.4125    0.1877   17.3053 H         1 LIG         0.1150 
     36 H6         35.7242    0.8909   16.9969 H         1 LIG         0.1150 
     37 H7         37.3058   -1.0013   17.3131 H         1 LIG         0.1150 
     38 H8         35.8359   -5.0349   18.1515 H         1 LIG         0.1150 
     39 H9         33.3341    1.7482   16.9143 H         1 LIG         0.1150 
     40 H11        37.7524   -3.4375   17.7748 H         1 LIG         0.1150 
     41 H14        26.9835   -4.0361   20.1855 H         1 LIG         0.1150 
     42 H15        30.7770   -4.7979   22.0848 H         1 LIG         0.1150 
     43 H17        29.7739   -4.7043   24.3009 H         1 LIG         0.1150 
     44 H201       27.6147   -3.3203   27.0232 H         1 LIG         0.0600 
     45 H202       28.9877   -3.8584   26.1027 H         1 LIG         0.0600 
     46 H203       28.2101   -2.3401   25.6851 H         1 LIG         0.0600 
     47 H211       25.5970   -3.1268   26.3398 H         1 LIG         0.0600 
     48 H212       25.8221   -2.3624   24.7852 H         1 LIG         0.0600 
     49 H213       24.9117   -3.8514   24.9387 H         1 LIG         0.0600 
     50 H221       26.4227   -5.6404   26.4918 H         1 LIG         0.0600 
     51 H222       26.0847   -6.0468   24.8279 H         1 LIG         0.0600 
     52 H223       27.7132   -6.1836   25.4637 H         1 LIG         0.0600 
@<TRIPOS>BOND
     1    1    4 ar   
     2    1    7 ar   
     3    1   10 ar   
     4    2    4 1    
     5    2   18 am   BACKBONE|DICT|INTERRES
     6    2   31 1    
     7    3   18 2    
     8    4   13 ar   
     9    5    8 1    
    10    5   18 am   BACKBONE|DICT|INTERRES
    11    5   32 1    
    12    6   20 2    
    13    7   14 ar   
    14    7   15 ar   
    15    8   20 am   BACKBONE|DICT|INTERRES
    16    8   33 1    
    17    9   11 1    
    18   10   16 ar   
    19   10   34 1    
    20   11   12 2    
    21   11   24 1    
    22   13   17 ar   
    23   13   35 1    
    24   14   17 ar   
    25   14   36 1    
    26   15   19 ar   
    27   15   37 1    
    28   16   19 ar   
    29   16   38 1    
    30   17   39 1    
    31   19   40 1    
    32   20   21 1    
    33   21   22 ar   
    34   21   23 ar   
    35   22   24 ar   
    36   22   41 1    
    37   23   25 ar   
    38   23   42 1    
    39   24   26 ar   
    40   25   26 ar   
    41   25   43 1    
    42   26   27 1    
    43   27   28 1    
    44   27   29 1    
    45   27   30 1    
    46   28   44 1    
    47   28   45 1    
    48   28   46 1    
    49   29   47 1    
    50   29   48 1    
    51   29   49 1    
    52   30   50 1    
    53   30   51 1    
    54   30   52 1    
@<TRIPOS>SUBSTRUCTURE
     1 LIG         1 GROUP             0       ****    0 ROOT    
