:3jvs_ligand
                    3D
 Schrodinger Suite 2020-1.
 52 54  0  0  1  0            999 V2000
   33.9930   -2.1240   17.6380 C   0  0  0  0  0  0
   31.4940   -2.4220   17.7810 N   0  0  0  0  0  0
   31.3890   -3.6210   15.8520 O   0  0  0  0  0  0
   32.6240   -1.6310   17.5880 C   0  0  0  0  0  0
   29.7930   -4.0180   17.3470 N   0  0  0  0  0  0
   30.4340   -5.4590   19.4010 O   0  0  0  0  0  0
   35.1360   -1.1870   17.4150 C   0  0  0  0  0  0
   29.1370   -3.8040   18.6060 N   0  0  0  0  0  0
   24.8190   -4.7610   22.6990 O   0  5  0  0  0  0
   34.2740   -3.5170   17.9020 C   0  0  0  0  0  0
   25.6450   -3.8090   22.3680 N   0  3  0  0  0  0
   25.1680   -2.5480   22.0310 O   0  0  0  0  0  0
   32.4120   -0.2110   17.3180 C   0  0  0  0  0  0
   34.8990    0.2110   17.1500 C   0  0  0  0  0  0
   36.4760   -1.6760   17.4650 C   0  0  0  0  0  0
   35.6370   -3.9930   17.9490 C   0  0  0  0  0  0
   33.5260    0.7020   17.1010 C   0  0  0  0  0  0
   30.9160   -3.3510   16.9640 C   0  0  0  0  0  0
   36.7350   -3.0780   17.7320 C   0  0  0  0  0  0
   29.5470   -4.6110   19.6220 C   0  0  0  0  0  0
   28.9510   -4.4900   20.9510 C   0  0  0  0  0  0
   27.5800   -4.1810   21.0710 C   0  0  0  0  0  0
   29.7350   -4.6820   22.1300 C   0  0  0  0  0  0
   26.9430   -4.0570   22.3480 C   0  0  0  0  0  0
   29.1390   -4.5650   23.4400 C   0  0  0  0  0  0
   27.7090   -4.2430   23.5950 C   0  0  0  0  0  0
   27.1220   -4.1330   25.0240 C   0  0  0  0  0  0
   28.0260   -3.3630   26.0170 C   0  0  0  0  0  0
   25.7950   -3.3270   25.2910 C   0  0  0  0  0  0
   26.8120   -5.5700   25.4860 C   0  0  0  0  0  0
   30.9805   -2.2219   18.6296 H   0  0  0  0  0  0
   29.3185   -4.7115   16.7865 H   0  0  0  0  0  0
   28.4362   -3.0725   18.6065 H   0  0  0  0  0  0
   33.4705   -4.2182   18.0713 H   0  0  0  0  0  0
   31.4125    0.1877   17.3053 H   0  0  0  0  0  0
   35.7242    0.8909   16.9969 H   0  0  0  0  0  0
   37.3058   -1.0013   17.3131 H   0  0  0  0  0  0
   35.8359   -5.0349   18.1515 H   0  0  0  0  0  0
   33.3341    1.7482   16.9143 H   0  0  0  0  0  0
   37.7524   -3.4375   17.7748 H   0  0  0  0  0  0
   26.9835   -4.0361   20.1855 H   0  0  0  0  0  0
   30.7770   -4.7979   22.0848 H   0  0  0  0  0  0
   29.7739   -4.7043   24.3009 H   0  0  0  0  0  0
   27.6147   -3.3203   27.0232 H   0  0  0  0  0  0
   28.9877   -3.8584   26.1027 H   0  0  0  0  0  0
   28.2101   -2.3401   25.6851 H   0  0  0  0  0  0
   25.5970   -3.1268   26.3398 H   0  0  0  0  0  0
   25.8221   -2.3624   24.7852 H   0  0  0  0  0  0
   24.9117   -3.8514   24.9387 H   0  0  0  0  0  0
   26.4227   -5.6404   26.4918 H   0  0  0  0  0  0
   26.0847   -6.0468   24.8279 H   0  0  0  0  0  0
   27.7132   -6.1836   25.4637 H   0  0  0  0  0  0
  1  4  2  0  0  0
  1  7  1  0  0  0
  1 10  1  0  0  0
  2  4  1  0  0  0
  2 18  1  0  0  0
  2 31  1  0  0  0
  3 18  2  0  0  0
  4 13  1  0  0  0
  5  8  1  0  0  0
  5 18  1  0  0  0
  5 32  1  0  0  0
  6 20  2  0  0  0
  7 14  2  0  0  0
  7 15  1  0  0  0
  8 20  1  0  0  0
  8 33  1  0  0  0
  9 11  1  0  0  0
 10 16  2  0  0  0
 10 34  1  0  0  0
 11 12  2  0  0  0
 11 24  1  0  0  0
 13 17  2  0  0  0
 13 35  1  0  0  0
 14 17  1  0  0  0
 14 36  1  0  0  0
 15 19  2  0  0  0
 15 37  1  0  0  0
 16 19  1  0  0  0
 16 38  1  0  0  0
 17 39  1  0  0  0
 19 40  1  0  0  0
 20 21  1  0  0  0
 21 22  2  0  0  0
 21 23  1  0  0  0
 22 24  1  0  0  0
 22 41  1  0  0  0
 23 25  2  0  0  0
 23 42  1  0  0  0
 24 26  2  0  0  0
 25 26  1  0  0  0
 25 43  1  0  0  0
 26 27  1  0  0  0
 27 28  1  0  0  0
 27 29  1  0  0  0
 27 30  1  0  0  0
 28 44  1  0  0  0
 28 45  1  0  0  0
 28 46  1  0  0  0
 29 47  1  0  0  0
 29 48  1  0  0  0
 29 49  1  0  0  0
 30 50  1  0  0  0
 30 51  1  0  0  0
 30 52  1  0  0  0
M  CHG  2   9  -1  11   1
M  END
> <s_pdb_PDB_ID>


> <s_pdb_PDB_CLASSIFICATION>
3JVS_PROTEIN

> <s_pdb_PDB_format_version>
3.0

> <b_ppw_prepared>
1

> <s_ppw_prepared_with_version>
2020-1

> <b_ppw_created_disulfur>
1

> <r_ff_Potential_Energy-OPLS3e>
-123894.201326125

> <r_ff_RMS_Derivative-OPLS3e>
0.0483542965056392

> <b_ff_Minimization_Converged-OPLS3e>
1

> <r_i_Potential_Energy-OPLS_2005>
-7293.25269964892

> <r_i_RMS_Derivative-OPLS_2005>
0.049252993626861

> <r_i_Max_Derivative-OPLS_2005>
0.722675172652917

> <r_i_Stretch_Energy-OPLS_2005>
11.3897418688253

> <r_i_Bend_Energy-OPLS_2005>
189.464386808862

> <r_i_LJ-14_Energy-OPLS_2005>
370.84228614299

> <r_i_El-14_Energy-OPLS_2005>
-320.510186816467

> <r_i_Van_der_Waals_Energy-OPLS_2005>
-517.61999610237

> <r_i_Electrostatic_Energy-OPLS_2005>
-7170.64901236075

> <r_i_Dihedral_Energy-OPLS_2005>
143.830080809989

> <r_i_target_temperature>
298

> <s_user_Residue_ID>
_:1

$$$$
