@<TRIPOS>MOLECULE
:1r5y_ligand
21   22    1
SMALL
USER_CHARGES


@<TRIPOS>ATOM
      1 C6         18.2500   16.9450   19.2760 C.ar      1 LIG         0.1800 
      2 N4         19.2200   17.3220   18.2010 N.pl3     1 LIG        -0.9000 
      3 C1         16.9740   16.5060   18.9080 C.ar      1 LIG        -0.1150 
      4 C2         16.0290   16.2140   19.8680 C.ar      1 LIG        -0.1150 
      5 C3         16.3140   16.4910   21.2240 C.ar      1 LIG         0.0308 
      6 N3         15.3500   16.3200   22.1950 N.2       1 LIG        -0.5229 
      7 C8         15.5880   16.5350   23.4610 C.ar      1 LIG         0.6796 
      8 N2         14.6290   16.3330   24.4490 N.pl3     1 LIG        -0.7850 
      9 N1         16.8210   17.0520   23.9220 N.pl3     1 LIG        -0.4225 
     10 C7         17.8280   17.3260   22.9730 C.ar      1 LIG         0.6150 
     11 O1         18.9640   17.6720   23.3330 O.2       1 LIG        -0.5000 
     12 C4         17.5640   17.0440   21.5690 C.ar      1 LIG        -0.1150 
     13 C5         18.5000   17.3140   20.5770 C.ar      1 LIG        -0.1150 
     14 H41        20.1759   17.5756   18.4275 H         1 LIG         0.3600 
     15 H42        19.0842   16.9759   17.2624 H         1 LIG         0.3600 
     16 H1         16.7415   16.3319   17.8681 H         1 LIG         0.1150 
     17 H2         15.0599   15.8316   19.5816 H         1 LIG         0.1150 
     18 H21        14.7650   16.5846   25.4254 H         1 LIG         0.3600 
     19 H22        13.7585   15.8438   24.2676 H         1 LIG         0.3600 
     20 HN1        16.9935   17.1806   24.9175 H         1 LIG         0.3000 
     21 H5         19.4526   17.7609   20.8228 H         1 LIG         0.1150 
@<TRIPOS>BOND
     1    1    2 1    
     2    1    3 ar   
     3    1   13 ar   
     4    2   14 1    
     5    2   15 1    
     6    3    4 ar   
     7    3   16 1    
     8    4    5 ar   
     9    4   17 1    
    10    5    6 ar   
    11    5   12 ar   
    12    6    7 ar   
    13    7    8 1    
    14    7    9 ar   
    15    8   18 1    
    16    8   19 1    
    17    9   10 ar   
    18    9   20 1    
    19   10   11 2    
    20   10   12 ar   
    21   12   13 ar   
    22   13   21 1    
@<TRIPOS>SUBSTRUCTURE
     1 LIG         1 GROUP             0       ****    0 ROOT    
