@<TRIPOS>MOLECULE
:2iwx_ligand
44   45    1
SMALL
USER_CHARGES


@<TRIPOS>ATOM
      1 C1         55.2130   75.9430   -5.7160 C.2       1 LIG         0.6250 
      2 C2         55.1850   76.8410   -4.5140 C.ar      1 LIG        -0.1150 
      3 C3         54.3080   77.9400   -4.5250 C.ar      1 LIG         0.1500 
      4 C4         54.2500   78.8390   -3.4690 C.ar      1 LIG        -0.1150 
      5 C5         55.1110   78.6130   -2.3920 C.ar      1 LIG        -0.1700 
      6 C6         55.9470   77.5310   -2.4050 C.ar      1 LIG         0.1800 
      7 C7         56.0390   76.6130   -3.4390 C.ar      1 LIG        -0.1150 
      8 C8         57.0120   75.4290   -3.3490 C.3       1 LIG        -0.0050 
      9 C9         58.3680   75.6650   -3.9470 C.2       1 LIG         0.4700 
     10 C10        58.8980   77.0470   -4.2040 C.3       1 LIG        -0.1200 
     11 C11        60.3080   76.9840   -4.8030 C.3       1 LIG        -0.1200 
     12 C12        60.8100   78.3620   -5.2040 C.3       1 LIG        -0.1200 
     13 C13        59.9570   79.0080   -6.2950 C.3       1 LIG        -0.1200 
     14 C14        60.0570   78.2250   -7.6030 C.3       1 LIG        -0.1200 
     15 C15        58.7230   77.5900   -7.9270 C.2       1 LIG        -0.1150 
     16 C16        58.6180   76.2670   -8.0280 C.2       1 LIG        -0.1150 
     17 C17        57.2910   75.6270   -8.3670 C.3       1 LIG        -0.1200 
     18 C18        56.6900   74.7670   -7.2600 C.3       1 LIG         0.1900 
     19 O2         54.2500   75.6110   -6.3730 O.2       1 LIG        -0.4300 
     20 O3         53.4440   78.1320   -5.5890 O.3       1 LIG        -0.5850 
     21 O4         55.1350   79.4940   -1.3390 O.co2     1 LIG        -0.8300 
     22 CL1        56.9420   77.2720   -0.9640 Cl        1 LIG        -0.1800 
     23 O5         59.0370   74.6520   -4.1670 O.2       1 LIG        -0.4700 
     24 O1         56.5320   75.5970   -6.0790 O.3       1 LIG        -0.3300 
     25 H4         53.5778   79.6851   -3.4812 H         1 LIG         0.1150 
     26 H81        56.5733   74.5695   -3.8436 H         1 LIG         0.0600 
     27 H82        57.1393   75.1156   -2.3148 H         1 LIG         0.0600 
     28 H101       58.9006   77.6169   -3.2747 H         1 LIG         0.0600 
     29 H102       58.2031   77.5365   -4.8837 H         1 LIG         0.0600 
     30 H111       60.3436   76.3091   -5.6580 H         1 LIG         0.0600 
     31 H112       60.9951   76.5677   -4.0647 H         1 LIG         0.0600 
     32 H121       61.8465   78.2928   -5.5365 H         1 LIG         0.0600 
     33 H122       60.8201   79.0110   -4.3273 H         1 LIG         0.0600 
     34 H131       60.3667   80.0035   -6.4634 H         1 LIG         0.0600 
     35 H132       58.9274   79.1827   -5.9817 H         1 LIG         0.0600 
     36 H141       60.8554   77.4821   -7.5798 H         1 LIG         0.0600 
     37 H142       60.3137   78.8897   -8.4241 H         1 LIG         0.0600 
     38 H15        57.8754   78.2434   -8.0743 H         1 LIG         0.1150 
     39 H16        59.4646   75.6150   -7.8703 H         1 LIG         0.1150 
     40 H171       57.4383   75.0141   -9.2559 H         1 LIG         0.0600 
     41 H172       56.5705   76.3961   -8.6467 H         1 LIG         0.0600 
     42 H181       57.3760   73.9568   -7.0125 H         1 LIG         0.0300 
     43 H182       55.7662   74.2938   -7.5944 H         1 LIG         0.0300 
     44 HO3        52.8317   78.8561   -5.4649 H         1 LIG         0.4350 
@<TRIPOS>BOND
     1    1    2 1    
     2    1   19 2    
     3    1   24 1    
     4    2    3 ar   
     5    2    7 ar   
     6    3    4 ar   
     7    3   20 1    
     8    4    5 ar   
     9    4   25 1    
    10    5    6 ar   
    11    5   21 1    
    12    6    7 ar   
    13    6   22 1    
    14    7    8 1    
    15    8    9 1    
    16    8   26 1    
    17    8   27 1    
    18    9   10 1    
    19    9   23 2    
    20   10   11 1    
    21   10   28 1    
    22   10   29 1    
    23   11   12 1    
    24   11   30 1    
    25   11   31 1    
    26   12   13 1    
    27   12   32 1    
    28   12   33 1    
    29   13   14 1    
    30   13   34 1    
    31   13   35 1    
    32   14   15 1    
    33   14   36 1    
    34   14   37 1    
    35   15   16 2    
    36   15   38 1    
    37   16   17 1    
    38   16   39 1    
    39   17   18 1    
    40   17   40 1    
    41   17   41 1    
    42   18   24 1    
    43   18   42 1    
    44   18   43 1    
    45   20   44 1    
@<TRIPOS>SUBSTRUCTURE
     1 LIG         1 GROUP             0       ****    0 ROOT    
