@<TRIPOS>MOLECULE
:2qbr_ligand
42   44    1
SMALL
USER_CHARGES


@<TRIPOS>ATOM
      1 S1         44.9240   14.3230    0.6640 S.3       1 LIG         0.0328 
      2 C2         45.0960   15.6460    1.7300 C.2       1 LIG        -0.1787 
      3 C3         45.9700   15.2890    2.7910 C.2       1 LIG         0.1473 
      4 C4         46.4440   13.9560    2.6530 C.2       1 LIG         0.2473 
      5 C5         45.9450   13.2820    1.5090 C.2       1 LIG        -0.1709 
      6 C6         44.4140   16.8590    1.4850 C.2       1 LIG         0.7150 
      7 O7         44.4470   17.7800    2.2990 O.co2     1 LIG        -0.8000 
      8 O8         43.7890   16.9570    0.4240 O.co2     1 LIG        -0.8000 
      9 C9         46.2010   11.8870    1.0260 C.ar      1 LIG         0.1072 
     10 C10        47.5180   11.3150    1.0600 C.ar      1 LIG        -0.1150 
     11 C11        47.7370    9.9830    0.6010 C.ar      1 LIG         0.2000 
     12 C12        46.6290    9.2030    0.0970 C.ar      1 LIG        -0.1150 
     13 C13        45.3100    9.7660    0.0560 C.ar      1 LIG        -0.1150 
     14 C14        45.1080   11.1050    0.5240 C.ar      1 LIG        -0.1150 
     15 BR19       47.6320   13.1870    3.9130 Br        1 LIG        -0.2000 
     16 O20        46.3660   16.1140    3.9000 O.3       1 LIG        -0.3000 
     17 C21        47.5820   16.8460    3.7100 C.3       1 LIG         0.1400 
     18 C22        47.9420   17.5920    4.9940 C.2       1 LIG         0.6000 
     19 O25        47.1630   17.5430    5.9630 O.co2     1 LIG        -0.8000 
     20 O26        49.0030   18.2220    5.0270 O.co2     1 LIG        -0.8000 
     21 N29        49.0320    9.5000    0.6690 N.pl3     1 LIG        -0.7800 
     22 C30        49.4040    8.0820    0.8060 C.3       1 LIG         0.1950 
     23 C31        49.4490    7.6120    2.2450 C.ar      1 LIG        -0.1150 
     24 C34        48.2330    7.1950    2.8950 C.ar      1 LIG        -0.1150 
     25 C35        48.2680    6.7450    4.2530 C.ar      1 LIG        -0.1150 
     26 C36        49.5260    6.7190    4.9440 C.ar      1 LIG        -0.1150 
     27 C37        50.7460    7.1350    4.3000 C.ar      1 LIG        -0.1150 
     28 C38        50.7060    7.5850    2.9370 C.ar      1 LIG        -0.1150 
     29 H10        48.3479   11.8999    1.4295 H         1 LIG         0.1150 
     30 H12        46.7812    8.1985   -0.2657 H         1 LIG         0.1150 
     31 H13        44.4804    9.1871   -0.3220 H         1 LIG         0.1150 
     32 H14        44.1145   11.5254    0.4982 H         1 LIG         0.1150 
     33 H211       47.4617   17.5616    2.8954 H         1 LIG         0.0300 
     34 H212       48.3967   16.1706    3.4460 H         1 LIG         0.0300 
     35 HN29       49.7324   10.1537    0.9894 H         1 LIG         0.3800 
     36 H301       50.3889    7.9466    0.3582 H         1 LIG         0.0600 
     37 H302       48.7288    7.4427    0.2387 H         1 LIG         0.0600 
     38 H34        47.2936    7.2229    2.3620 H         1 LIG         0.1150 
     39 H35        47.3573    6.4435    4.7443 H         1 LIG         0.1150 
     40 H36        49.5545    6.3645    5.9625 H         1 LIG         0.1150 
     41 H37        51.6829    7.1026    4.8358 H         1 LIG         0.1150 
     42 H38        51.6137    7.8970    2.4413 H         1 LIG         0.1150 
@<TRIPOS>BOND
     1    1    2 1    
     2    1    5 1    
     3    2    3 2    
     4    2    6 1    
     5    3    4 1    
     6    3   16 1    
     7    4    5 2    
     8    4   15 1    
     9    5    9 1    
    10    6    7 2    
    11    6    8 1    
    12    9   10 ar   
    13    9   14 ar   
    14   10   11 ar   
    15   10   29 1    
    16   11   12 ar   
    17   11   21 1    
    18   12   13 ar   
    19   12   30 1    
    20   13   14 ar   
    21   13   31 1    
    22   14   32 1    
    23   16   17 1    
    24   17   18 1    
    25   17   33 1    
    26   17   34 1    
    27   18   19 2    
    28   18   20 1    
    29   21   22 1    
    30   21   35 1    
    31   22   23 1    
    32   22   36 1    
    33   22   37 1    
    34   23   24 ar   
    35   23   28 ar   
    36   24   25 ar   
    37   24   38 1    
    38   25   26 ar   
    39   25   39 1    
    40   26   27 ar   
    41   26   40 1    
    42   27   28 ar   
    43   27   41 1    
    44   28   42 1    
@<TRIPOS>SUBSTRUCTURE
     1 LIG         1 GROUP             0       ****    0 ROOT    
