@<TRIPOS>MOLECULE
:3wtj_ligand
25   26    1
SMALL
USER_CHARGES


@<TRIPOS>ATOM
      1 C5         29.8120  -26.6700  -30.4830 C.ar      1 LIG         0.2270 
      2 C6         29.7920  -26.2740  -31.8490 C.ar      1 LIG        -0.4470 
      3 C1         29.6820  -24.8930  -32.1610 C.ar      1 LIG         0.6650 
      4 CL7        29.6260  -24.3450  -33.8640 Cl        1 LIG        -0.1800 
      5 N2         29.6060  -23.9590  -31.1430 N.ar      1 LIG        -0.6780 
      6 C3         29.6240  -24.3160  -29.8270 C.ar      1 LIG         0.4730 
      7 C4         29.7220  -25.6780  -29.4600 C.ar      1 LIG        -0.4550 
      8 C8         29.7060  -26.0590  -27.9900 C.3       1 LIG         0.1655 
      9 N9         30.9450  -26.5950  -27.4330 N.pl3     1 LIG        -0.2200 
     10 C13        32.0910  -25.6830  -27.3020 C.3       1 LIG         0.0025 
     11 C12        33.2460  -26.4860  -26.6920 C.3       1 LIG         0.0475 
     12 S11        32.6410  -28.1120  -26.4410 S.3       1 LIG        -0.1750 
     13 C10        31.1000  -27.8620  -27.0270 C.2       1 LIG         0.3415 
     14 N14        30.1710  -28.7560  -27.0850 N.2       1 LIG        -0.4815 
     15 C15        30.3190  -29.9160  -26.7110 C.1       1 LIG         0.2450 
     16 N16        30.4740  -31.0140  -26.3690 N.1       1 LIG        -0.1225 
     17 H5         29.8915  -27.7149  -30.2216 H         1 LIG         0.0650 
     18 H6         29.8569  -27.0129  -32.6340 H         1 LIG         0.1550 
     19 H3         29.5522  -23.5450  -29.0802 H         1 LIG         0.0120 
     20 H81        28.8725  -26.7459  -27.8395 H         1 LIG         0.0600 
     21 H82        29.4450  -25.1744  -27.4075 H         1 LIG         0.0600 
     22 H131       31.7837  -24.9174  -26.5952 H         1 LIG         0.0600 
     23 H132       32.3289  -25.1685  -28.2131 H         1 LIG         0.0600 
     24 H121       33.5703  -26.0563  -25.7446 H         1 LIG         0.0600 
     25 H122       34.1011  -26.5154  -27.3677 H         1 LIG         0.0600 
@<TRIPOS>BOND
     1    1    2 ar   
     2    1    7 ar   
     3    1   17 1    
     4    2    3 ar   
     5    2   18 1    
     6    3    4 1    
     7    3    5 ar   
     8    5    6 ar   
     9    6    7 ar   
    10    6   19 1    
    11    7    8 1    
    12    8    9 1    
    13    8   20 1    
    14    8   21 1    
    15    9   10 1    
    16    9   13 1    
    17   10   11 1    
    18   10   22 1    
    19   10   23 1    
    20   11   12 1    
    21   11   24 1    
    22   11   25 1    
    23   12   13 1    
    24   13   14 2    
    25   14   15 1    
    26   15   16 3    
@<TRIPOS>SUBSTRUCTURE
     1 LIG         1 GROUP             0       ****    0 ROOT    
