@<TRIPOS>MOLECULE
:3gv9_ligand
18   18    1
SMALL
USER_CHARGES


@<TRIPOS>ATOM
      1 O11       -34.7700    5.4140   13.1710 O.2       1 LIG        -0.5000 
      2 C10       -35.1090    4.3990   13.7540 C.2       1 LIG         0.5000 
      3 C12       -35.4310    3.1390   13.0060 C.3       1 LIG        -0.1800 
      4 N9        -35.2120    4.3220   15.0820 N.am      1 LIG        -0.3850 
      5 C3        -35.2950    5.4090   15.8870 C.2       1 LIG         0.1323 
      6 C4        -35.5620    6.7710   15.6670 C.2       1 LIG        -0.0738 
      7 C5        -35.5530    7.5640   16.8210 C.2       1 LIG        -0.3255 
      8 S1        -35.2020    6.5610   18.2030 S.3       1 LIG         0.0328 
      9 C2        -35.0620    5.0960   17.3140 C.2       1 LIG        -0.1787 
     10 C6        -34.7550    3.7910   17.9590 C.2       1 LIG         0.7150 
     11 O7        -34.5680    2.8110   17.2160 O.co2     1 LIG        -0.8000 
     12 O8        -34.6960    3.7050   19.2040 O.co2     1 LIG        -0.8000 
     13 H121      -34.8603    2.3000   13.4042 H         1 LIG         0.0600 
     14 H122      -36.4927    2.9070   13.0905 H         1 LIG         0.0600 
     15 H123      -35.1881    3.2437   11.9481 H         1 LIG         0.0600 
     16 HN9       -35.3265    3.4164   15.5220 H         1 LIG         0.3000 
     17 H4        -35.7691    7.1669   14.6850 H         1 LIG         0.1211 
     18 H5        -35.7390    8.6194   16.9385 H         1 LIG         0.2618 
@<TRIPOS>BOND
     1    1    2 2    
     2    2    3 1    
     3    2    4 am   BACKBONE|DICT|INTERRES
     4    3   13 1    
     5    3   14 1    
     6    3   15 1    
     7    4    5 1    
     8    4   16 1    
     9    5    6 1    
    10    5    9 2    
    11    6    7 2    
    12    6   17 1    
    13    7    8 1    
    14    7   18 1    
    15    8    9 1    
    16    9   10 1    
    17   10   11 2    
    18   10   12 1    
@<TRIPOS>SUBSTRUCTURE
     1 LIG         1 GROUP             0       ****    0 ROOT    
