@<TRIPOS>MOLECULE
:3dx2_ligand
26   26    1
SMALL
USER_CHARGES


@<TRIPOS>ATOM
      1 O6         28.2600   65.2430    8.8500 O.2       1 LIG        -0.4600 
      2 S6         29.0250   66.3980    7.8910 S.3       1 LIG         0.1700 
      3 C7         28.5970   65.8650    6.2690 C.3       1 LIG        -0.0350 
      4 C1         30.7270   65.8680    7.9150 C.3       1 LIG         0.0850 
      5 C5         31.1830   65.7400    9.3620 C.3       1 LIG         0.2500 
      6 N5         30.9620   64.4100    9.9360 N.4       1 LIG        -0.3000 
      7 C4         32.6860   66.1090    9.3780 C.3       1 LIG         0.2050 
      8 O4         33.4900   64.9800    9.7260 O.3       1 LIG        -0.5750 
      9 C3         33.0060   66.6360    7.9750 C.3       1 LIG         0.2050 
     10 O3         33.6370   65.6110    7.1770 O.3       1 LIG        -0.5750 
     11 C2         31.6320   66.9930    7.4050 C.3       1 LIG         0.2050 
     12 O2         31.6310   67.1620    5.9810 O.3       1 LIG        -0.6830 
     13 H71        29.3283   66.1913    5.5364 H         1 LIG         0.0600 
     14 H72        28.5334   64.7801    6.2159 H         1 LIG         0.0600 
     15 H73        27.6417   66.3043    5.9951 H         1 LIG         0.0600 
     16 H1         30.8531   64.9393    7.3600 H         1 LIG         0.0600 
     17 H5         30.6569   66.4636    9.9876 H         1 LIG         0.0600 
     18 H51        31.2998   64.4049   10.8924 H         1 LIG         0.3300 
     19 H52        29.9748   64.1961    9.9278 H         1 LIG         0.3300 
     20 H53        31.4662   63.7170    9.3946 H         1 LIG         0.3300 
     21 H4         32.8619   66.8949   10.1126 H         1 LIG         0.0600 
     22 HO4        33.6600   64.9188   10.6445 H         1 LIG         0.3100 
     23 H3         33.6806   67.4870    8.0246 H         1 LIG         0.0600 
     24 HO3        32.9946   65.1938    6.6289 H         1 LIG         0.3100 
     25 H2         31.2912   67.9077    7.8531 H         1 LIG         0.0600 
     26 HO2        32.4895   67.4653    5.6914 H         1 LIG         0.4180 
@<TRIPOS>BOND
     1    1    2 2    
     2    2    3 1    
     3    2    4 1    
     4    3   13 1    
     5    3   14 1    
     6    3   15 1    
     7    4    5 1    
     8    4   11 1    
     9    4   16 1    
    10    5    6 1    
    11    5    7 1    
    12    5   17 1    
    13    6   18 1    
    14    6   19 1    
    15    6   20 1    
    16    7    8 1    
    17    7    9 1    
    18    7   21 1    
    19    8   22 1    
    20    9   10 1    
    21    9   11 1    
    22    9   23 1    
    23   10   24 1    
    24   11   12 1    
    25   11   25 1    
    26   12   26 1    
@<TRIPOS>SUBSTRUCTURE
     1 LIG         1 GROUP             0       ****    0 ROOT    
