3arv_ligand

Created by X-TOOL on Fri Nov 18 16:21:31 2016
 40 45  0  0  0  0  0  0  0  0999 V2000
   18.3200   -8.9040   23.7780  N 0  0  0  1  0  3
   23.2950  -11.5750   21.0070  C 0  0  0  3  0  4
   22.6980  -10.6800   22.0770  O 0  0  0  1  0  2
   21.1900  -10.9900   20.3930  C 0  0  0  1  0  3
   22.3770  -11.4870   19.8460  O 0  0  0  1  0  2
   21.3810  -10.5200   21.7070  C 0  0  0  1  0  3
   12.8560   -7.2870   25.2300  O 0  0  0  1  0  2
   19.9360  -10.9210   19.7950  C 0  0  0  2  0  3
   14.9520   -7.4060   26.0280  O 0  0  0  1  0  2
   18.8590  -10.3980   20.5130  C 0  0  0  1  0  3
   19.0680   -9.9360   21.7860  C 0  0  0  1  0  3
   20.3330   -9.9850   22.3840  C 0  0  0  2  0  3
   17.5680  -10.3260   19.9630  C 0  0  0  2  0  3
   16.4630   -9.8330   20.6850  C 0  0  0  2  0  3
   18.0210   -9.3880   22.4760  C 0  0  0  1  0  3
   17.2390   -8.4460   24.5270  C 0  0  0  3  0  4
   15.9690   -8.4050   23.9660  C 0  0  0  1  0  3
   15.7050   -8.8310   22.6700  C 0  0  0  1  0  3
   16.7330   -9.3420   21.9510  C 0  0  0  1  0  3
   14.4240   -8.8470   22.1500  C 0  0  0  2  0  3
   13.3760   -8.2970   22.9220  C 0  0  0  2  0  3
   13.6390   -7.8390   24.2300  C 0  0  0  1  0  3
   14.9290   -7.9000   24.7410  C 0  0  0  1  0  3
   13.5550   -7.4700   26.4510  C 0  0  0  3  0  4
   19.6930   -9.0400   24.3500  C 0  0  0  4  0  4
   23.3581  -12.6124   21.3672  H 0  0  0  1  0  1
   24.2989  -11.2217   20.7288  H 0  0  0  1  0  1
   19.7960  -11.2709   18.7786  H 0  0  0  1  0  1
   20.4753   -9.5964   23.3859  H 0  0  0  1  0  1
   17.4163  -10.6627   18.9439  H 0  0  0  1  0  1
   15.4602   -9.8379   20.2733  H 0  0  0  1  0  1
   17.4813   -7.4190   24.8379  H 0  0  0  1  0  1
   17.1724   -9.0919   25.4149  H 0  0  0  1  0  1
   14.2280   -9.2719   21.1722  H 0  0  0  1  0  1
   12.3753   -8.2274   22.5112  H 0  0  0  1  0  1
   13.3203   -8.4459   26.9011  H 0  0  0  1  0  1
   13.3196   -6.6694   27.1677  H 0  0  0  1  0  1
   20.3770   -9.4177   23.5757  H 0  0  0  1  0  1
   19.6703   -9.7445   25.1945  H 0  0  0  1  0  1
   20.0429   -8.0580   24.7010  H 0  0  0  1  0  1
  1 15  1  0  0  1
 16  1  1  0  0  1
  1 25  1  0  0  2
  3  2  1  0  0  1
  5  2  1  0  0  1
  6  3  1  0  0  1
  4  5  1  0  0  1
  6  4  4  0  0  1
  8  4  4  0  0  1
 12  6  4  0  0  1
  7 22  1  0  0  1
 24  7  1  0  0  1
 10  8  4  0  0  1
 23  9  1  0  0  1
  9 24  1  0  0  1
 11 10  4  0  0  1
 10 13  4  0  0  1
 11 12  4  0  0  1
 15 11  4  0  0  1
 14 13  4  0  0  1
 19 14  4  0  0  1
 15 19  4  0  0  1
 17 16  1  0  0  1
 17 18  4  0  0  1
 17 23  4  0  0  1
 18 19  1  0  0  1
 18 20  4  0  0  1
 20 21  4  0  0  1
 21 22  4  0  0  1
 22 23  4  0  0  1
  2 26  1  0  0  2
  2 27  1  0  0  2
  8 28  1  0  0  2
 12 29  1  0  0  2
 13 30  1  0  0  2
 14 31  1  0  0  2
 16 32  1  0  0  2
 16 33  1  0  0  2
 20 34  1  0  0  2
 21 35  1  0  0  2
 24 36  1  0  0  2
 24 37  1  0  0  2
 25 38  1  0  0  2
 25 39  1  0  0  2
 25 40  1  0  0  2
M  END
> <MOLECULAR_FORMULA>
C20H15NO4

> <MOLECULAR_WEIGHT>
333.2

> <NUM_HB_ATOMS>
4  

> <NUM_ROTOR>
0  

> <XLOGP2>
4.59 

$$$$
