@<TRIPOS>MOLECULE
:3arv_ligand
40   45    1
SMALL
USER_CHARGES


@<TRIPOS>ATOM
      1 N          18.3200   -8.9040   23.7780 N.pl3     1 LIG        -0.6300 
      2 C1         23.2950  -11.5750   21.0070 C.3       1 LIG         0.2000 
      3 O1         22.6980  -10.6800   22.0770 O.3       1 LIG        -0.2850 
      4 C2         21.1900  -10.9900   20.3930 C.ar      1 LIG         0.0850 
      5 O2         22.3770  -11.4870   19.8460 O.3       1 LIG        -0.2850 
      6 C3         21.3810  -10.5200   21.7070 C.ar      1 LIG         0.0850 
      7 O3         12.8560   -7.2870   25.2300 O.3       1 LIG        -0.2850 
      8 C4         19.9360  -10.9210   19.7950 C.ar      1 LIG        -0.1150 
      9 O4         14.9520   -7.4060   26.0280 O.3       1 LIG        -0.2850 
     10 C5         18.8590  -10.3980   20.5130 C.ar      1 LIG         0.0000 
     11 C6         19.0680   -9.9360   21.7860 C.ar      1 LIG         0.0000 
     12 C7         20.3330   -9.9850   22.3840 C.ar      1 LIG        -0.1150 
     13 C8         17.5680  -10.3260   19.9630 C.ar      1 LIG        -0.1150 
     14 C9         16.4630   -9.8330   20.6850 C.ar      1 LIG        -0.1150 
     15 C10        18.0210   -9.3880   22.4760 C.ar      1 LIG         0.2100 
     16 C12        17.2390   -8.4460   24.5270 C.3       1 LIG         0.2050 
     17 C13        15.9690   -8.4050   23.9660 C.ar      1 LIG        -0.1150 
     18 C14        15.7050   -8.8310   22.6700 C.ar      1 LIG         0.0000 
     19 C15        16.7330   -9.3420   21.9510 C.ar      1 LIG         0.0000 
     20 C18        14.4240   -8.8470   22.1500 C.ar      1 LIG        -0.1150 
     21 C19        13.3760   -8.2970   22.9220 C.ar      1 LIG        -0.1150 
     22 C20        13.6390   -7.8390   24.2300 C.ar      1 LIG         0.0850 
     23 C21        14.9290   -7.9000   24.7410 C.ar      1 LIG         0.0850 
     24 C23        13.5550   -7.4700   26.4510 C.3       1 LIG         0.2000 
     25 C25        19.6930   -9.0400   24.3500 C.3       1 LIG         0.0300 
     26 H11        23.3488  -12.6036   21.3655 H         1 LIG         0.1000 
     27 H12        24.2883  -11.2214   20.7305 H         1 LIG         0.1000 
     28 H4         19.8012  -11.2807   18.7854 H         1 LIG         0.1150 
     29 H7         20.4114  -10.7196   23.1730 H         1 LIG         0.1150 
     30 H8         17.4043  -10.6857   18.9571 H         1 LIG         0.1150 
     31 H9         15.5337   -9.8576   20.1471 H         1 LIG         0.1150 
     32 H121       17.4810   -7.4107   24.7718 H         1 LIG         0.0600 
     33 H122       17.2299   -8.9451   25.4883 H         1 LIG         0.0600 
     34 H18        14.1015   -9.1924   21.1858 H         1 LIG         0.1150 
     35 H19        12.3712   -8.2622   22.5274 H         1 LIG         0.1150 
     36 H231       13.3009   -8.4282   26.8930 H         1 LIG         0.1000 
     37 H232       13.3303   -6.6607   27.1461 H         1 LIG         0.1000 
     38 H251       19.5677   -8.4839   25.2794 H         1 LIG         0.0600 
     39 H252       19.9547   -9.9841   24.8332 H         1 LIG         0.0600 
     40 H253       20.4974   -8.3997   23.9695 H         1 LIG         0.0600 
@<TRIPOS>BOND
     1    1   15 1    
     2    1   16 1    
     3    1   25 1    
     4    2    3 1    
     5    2    5 1    
     6    2   26 1    
     7    2   27 1    
     8    3    6 1    
     9    4    5 1    
    10    4    6 ar   
    11    4    8 ar   
    12    6   12 ar   
    13    7   22 1    
    14    7   24 1    
    15    8   10 ar   
    16    8   28 1    
    17    9   23 1    
    18    9   24 1    
    19   10   11 ar   
    20   10   13 ar   
    21   11   12 ar   
    22   11   15 ar   
    23   12   29 1    
    24   13   14 ar   
    25   13   30 1    
    26   14   19 ar   
    27   14   31 1    
    28   15   19 ar   
    29   16   17 1    
    30   16   32 1    
    31   16   33 1    
    32   17   18 ar   
    33   17   23 ar   
    34   18   19 1    
    35   18   20 ar   
    36   20   21 ar   
    37   20   34 1    
    38   21   22 ar   
    39   21   35 1    
    40   22   23 ar   
    41   24   36 1    
    42   24   37 1    
    43   25   38 1    
    44   25   39 1    
    45   25   40 1    
@<TRIPOS>SUBSTRUCTURE
     1 LIG         1 GROUP             0       ****    0 ROOT    
