@<TRIPOS>MOLECULE
:4ih5_ligand
27   29    1
SMALL
USER_CHARGES


@<TRIPOS>ATOM
      1 C4        -31.7160   -9.0430   13.7160 C.ar      1 LIG         0.8640 
      2 C14       -35.8830   -9.9190   11.6850 C.ar      1 LIG        -0.1150 
      3 C5        -31.9080   -7.6740   13.3210 C.ar      1 LIG        -0.5006 
      4 C6        -30.9980   -6.7570   13.8830 C.ar      1 LIG         0.8406 
      5 C10       -32.7290   -6.8860   12.4790 C.ar      1 LIG         0.0360 
      6 C13       -34.8700   -9.8480   12.6390 C.ar      1 LIG         0.2000 
      7 N1        -30.0070   -7.1000   14.7310 N.ar      1 LIG        -0.8390 
      8 N3        -30.7280   -9.3910   14.5640 N.ar      1 LIG        -0.8390 
      9 C2        -29.9400   -8.4040   15.0060 C.ar      1 LIG         0.8740 
     10 N7        -31.3290   -5.5190   13.3570 N.2       1 LIG        -0.5310 
     11 N9        -32.3880   -5.6130   12.4970 N.pl3     1 LIG        -0.1490 
     12 N11       -32.5320  -10.0550   13.2120 N.pl3     1 LIG        -0.5800 
     13 N12       -33.5240   -9.9050   12.2200 N.pl3     1 LIG        -0.5800 
     14 C15       -37.2070   -9.7530   12.0670 C.ar      1 LIG        -0.1150 
     15 C16       -37.5290   -9.5240   13.3910 C.ar      1 LIG        -0.1150 
     16 C17       -36.5290   -9.4850   14.3470 C.ar      1 LIG        -0.1150 
     17 C18       -35.2000   -9.6480   13.9780 C.ar      1 LIG        -0.1150 
     18 H14       -35.6419  -10.0365   10.6396 H         1 LIG         0.1150 
     19 H10       -33.5753   -7.1689   11.8711 H         1 LIG         0.1350 
     20 H2        -29.1320   -8.6940   15.6581 H         1 LIG        -0.0320 
     21 HN9       -32.9334   -4.8287   12.1878 H         1 LIG         0.3410 
     22 HN11      -32.3818  -10.9876   13.5707 H         1 LIG         0.3800 
     23 HN12      -33.3036  -10.1854   11.2744 H         1 LIG         0.3800 
     24 H15       -37.9867   -9.7861   11.3203 H         1 LIG         0.1150 
     25 H16       -38.5602   -9.3864   13.6821 H         1 LIG         0.1150 
     26 H17       -36.7803   -9.3204   15.3844 H         1 LIG         0.1150 
     27 H18       -34.4492   -9.5826   14.7514 H         1 LIG         0.1150 
@<TRIPOS>BOND
     1    1    3 ar   
     2    1    8 ar   
     3    1   12 1    
     4    2    6 ar   
     5    2   14 ar   
     6    2   18 1    
     7    3    4 ar   
     8    3    5 ar   
     9    4    7 ar   
    10    4   10 ar   
    11    5   11 ar   
    12    5   19 1    
    13    6   13 1    
    14    6   17 ar   
    15    7    9 ar   
    16    8    9 ar   
    17    9   20 1    
    18   10   11 ar   
    19   11   21 1    
    20   12   13 1    
    21   12   22 1    
    22   13   23 1    
    23   14   15 ar   
    24   14   24 1    
    25   15   16 ar   
    26   15   25 1    
    27   16   17 ar   
    28   16   26 1    
    29   17   27 1    
@<TRIPOS>SUBSTRUCTURE
     1 LIG         1 GROUP             0       ****    0 ROOT    
