@<TRIPOS>MOLECULE
:5aba_ligand
48   50    1
SMALL
USER_CHARGES


@<TRIPOS>ATOM
      1 N          91.9740  102.1130  -44.1350 N.4       1 LIG        -0.1000 
      2 C          92.5260  102.9860  -45.2470 C.3       1 LIG         0.1500 
      3 C01        90.9830   93.2880  -44.7730 C.ar      1 LIG         0.1800 
      4 C1         90.4210   95.6370  -44.5230 C.ar      1 LIG        -0.1150 
      5 N1         90.4610   98.1210  -44.4940 N.3       1 LIG        -0.6300 
      6 O1         90.7450   96.7630  -42.4330 O.3       1 LIG        -0.5850 
      7 C02        91.3910   93.2560  -43.4310 C.ar      1 LIG        -0.1150 
      8 C2         89.8890   96.8980  -45.1370 C.3       1 LIG         0.2050 
      9 C03        91.8070   98.3810  -45.1010 C.3       1 LIG         0.0900 
     10 C3         90.4980   94.4860  -45.3130 C.ar      1 LIG        -0.1150 
     11 C04        92.9380  102.0230  -42.9700 C.3       1 LIG         0.1500 
     12 C4         91.3190   94.4140  -42.6440 C.ar      1 LIG         0.2000 
     13 C05        93.0910  103.4210  -42.3820 C.3       1 LIG        -0.1200 
     14 C06        93.6740  104.3510  -43.4350 C.3       1 LIG         0.2050 
     15 O          93.7370  105.6620  -42.9020 O.3       1 LIG        -0.6830 
     16 C07        92.8110  104.3750  -44.6910 C.3       1 LIG        -0.1200 
     17 C7         90.8310   95.6090  -43.1800 C.ar      1 LIG         0.1500 
     18 C10        91.4280  100.7910  -44.6550 C.3       1 LIG         0.2100 
     19 C15        90.1100  100.4770  -43.9500 C.3       1 LIG        -0.1200 
     20 C16        89.4850   99.2670  -44.6070 C.3       1 LIG         0.0900 
     21 CL         91.0530   91.9000  -45.7820 Cl        1 LIG        -0.1800 
     22 BR         91.8670   94.3200  -40.8420 Br        1 LIG        -0.2000 
     23 C8         92.4220   99.6330  -44.5020 C.3       1 LIG        -0.1200 
     24 HN         91.1653  102.6091  -43.7883 H         1 LIG         0.2900 
     25 HXT1       91.8034  103.0667  -46.0598 H         1 LIG         0.0600 
     26 HXT2       93.4270  102.5400  -45.6642 H         1 LIG         0.0600 
     27 HO1        90.5356   97.4972  -43.0022 H         1 LIG         0.4350 
     28 H02        91.7595   92.3364  -43.0013 H         1 LIG         0.1150 
     29 H21        88.8121   96.8814  -44.9649 H         1 LIG         0.0600 
     30 H22        90.0217   96.9128  -46.2161 H         1 LIG         0.0600 
     31 H031       91.6879   98.5353  -46.1722 H         1 LIG         0.0600 
     32 H032       92.4564   97.5168  -44.9801 H         1 LIG         0.0600 
     33 H3         90.1584   94.5152  -46.3370 H         1 LIG         0.1150 
     34 H041       93.8990  101.6186  -43.2761 H         1 LIG         0.0600 
     35 H042       92.5325  101.3610  -42.2040 H         1 LIG         0.0600 
     36 H051       93.7453  103.3834  -41.5100 H         1 LIG         0.0600 
     37 H052       92.1243  103.7892  -42.0339 H         1 LIG         0.0600 
     38 H06        94.6854  104.0306  -43.6913 H         1 LIG         0.0600 
     39 HO         94.3325  105.6629  -42.1677 H         1 LIG         0.4180 
     40 H071       91.8598  104.8598  -44.4643 H         1 LIG         0.0600 
     41 H072       93.2865  104.9872  -45.4583 H         1 LIG         0.0600 
     42 H10        91.2053  100.9154  -45.7163 H         1 LIG         0.0600 
     43 H151       89.4259  101.3229  -44.0268 H         1 LIG         0.0600 
     44 H152       90.2702  100.2954  -42.8858 H         1 LIG         0.0600 
     45 H161       88.5490   99.0092  -44.1096 H         1 LIG         0.0600 
     46 H162       89.2583   99.4651  -45.6557 H         1 LIG         0.0600 
     47 H81        93.3554   99.8605  -45.0061 H         1 LIG         0.0600 
     48 H82        92.6538   99.4349  -43.4562 H         1 LIG         0.0600 
@<TRIPOS>BOND
     1    1    2 1    
     2    1   11 1    
     3    1   18 1    
     4    1   24 1    
     5    2   16 1    
     6    2   25 1    
     7    2   26 1    
     8    3    7 ar   
     9    3   10 ar   
    10    3   21 1    
    11    4    8 1    
    12    4   10 ar   
    13    4   17 ar   
    14    5    8 1    
    15    5    9 1    
    16    5   20 1    
    17    6   17 1    
    18    6   27 1    
    19    7   12 ar   
    20    7   28 1    
    21    8   29 1    
    22    8   30 1    
    23    9   23 1    
    24    9   31 1    
    25    9   32 1    
    26   10   33 1    
    27   11   13 1    
    28   11   34 1    
    29   11   35 1    
    30   12   17 ar   
    31   12   22 1    
    32   13   14 1    
    33   13   36 1    
    34   13   37 1    
    35   14   15 1    
    36   14   16 1    
    37   14   38 1    
    38   15   39 1    
    39   16   40 1    
    40   16   41 1    
    41   18   19 1    
    42   18   23 1    
    43   18   42 1    
    44   19   20 1    
    45   19   43 1    
    46   19   44 1    
    47   20   45 1    
    48   20   46 1    
    49   23   47 1    
    50   23   48 1    
@<TRIPOS>SUBSTRUCTURE
     1 LIG         1 GROUP             0       ****    0 ROOT    
