@<TRIPOS>MOLECULE
:3u8n_ligand
36   37    1
SMALL
USER_CHARGES


@<TRIPOS>ATOM
      1 C1         51.5350   22.1430  102.0840 C.3       1 LIG         0.0900 
      2 C2         50.5360   22.4300  100.9620 C.3       1 LIG         0.1700 
      3 N1         51.2580   22.8170   99.7340 N.4       1 LIG        -0.2000 
      4 C3         51.3980   24.2860   99.5650 C.3       1 LIG         0.1700 
      5 C4         52.5000   24.8700  100.4620 C.3       1 LIG        -0.1200 
      6 C5         52.2750   24.5890  101.9680 C.3       1 LIG         0.0900 
      7 N2         52.5730   23.1790  102.2700 N.pl3     1 LIG        -0.6200 
      8 C6         56.3570   21.8560  103.2900 C.ar      1 LIG         0.6850 
      9 N3         55.2800   21.0850  103.5740 N.ar      1 LIG        -0.6780 
     10 C7         54.0570   21.5250  103.2360 C.ar      1 LIG         0.4730 
     11 C8         53.8310   22.7710  102.5900 C.ar      1 LIG        -0.0920 
     12 C9         54.9700   23.5640  102.3110 C.ar      1 LIG         0.2270 
     13 C10        56.2700   23.1220  102.6600 C.ar      1 LIG        -0.1920 
     14 BR1        57.8940   21.2180  103.7610 Br        1 LIG        -0.2000 
     15 O1         57.4320   23.8380  102.3940 O.3       1 LIG        -0.3000 
     16 C11        57.2700   25.1350  101.8560 C.3       1 LIG         0.1400 
     17 C12        58.5660   25.7740  101.3590 C.3       1 LIG        -0.1800 
     18 H11        52.0241   21.2152  101.8025 H         1 LIG         0.0600 
     19 H12        51.0139   21.9679  103.0259 H         1 LIG         0.0600 
     20 H21        49.8215   23.1971  101.2613 H         1 LIG         0.0600 
     21 H22        49.9440   21.5553  100.7433 H         1 LIG         0.0600 
     22 H11        50.6979   22.4936   98.9540 H         1 LIG         0.3100 
     23 H12        52.1644   22.3648   99.7028 H         1 LIG         0.3100 
     24 H31        50.4419   24.7441   99.7932 H         1 LIG         0.0600 
     25 H32        51.6127   24.4910   98.5188 H         1 LIG         0.0600 
     26 H41        52.5247   25.9496  100.3124 H         1 LIG         0.0600 
     27 H42        53.4686   24.5006  100.1266 H         1 LIG         0.0600 
     28 H51        51.2511   24.8286  102.2572 H         1 LIG         0.0600 
     29 H52        52.9088   25.2328  102.5716 H         1 LIG         0.0600 
     30 H7         53.2444   20.8975  103.5577 H         1 LIG         0.0120 
     31 H9         54.8323   24.5235  101.8462 H         1 LIG         0.0650 
     32 H111       56.8119   25.7605  102.6110 H         1 LIG         0.0300 
     33 H112       56.6129   25.0558  100.9992 H         1 LIG         0.0300 
     34 H121       58.3721   26.7085  100.8355 H         1 LIG         0.0600 
     35 H122       59.1758   26.0449  102.2168 H         1 LIG         0.0600 
     36 H123       59.1040   25.1147  100.6816 H         1 LIG         0.0600 
@<TRIPOS>BOND
     1    1    2 1    
     2    1    7 1    
     3    1   18 1    
     4    1   19 1    
     5    2    3 1    
     6    2   20 1    
     7    2   21 1    
     8    3    4 1    
     9    3   22 1    
    10    3   23 1    
    11    4    5 1    
    12    4   24 1    
    13    4   25 1    
    14    5    6 1    
    15    5   26 1    
    16    5   27 1    
    17    6    7 1    
    18    6   28 1    
    19    6   29 1    
    20    7   11 1    
    21    8    9 ar   
    22    8   13 ar   
    23    8   14 1    
    24    9   10 ar   
    25   10   11 ar   
    26   10   30 1    
    27   11   12 ar   
    28   12   13 ar   
    29   12   31 1    
    30   13   15 1    
    31   15   16 1    
    32   16   17 1    
    33   16   32 1    
    34   16   33 1    
    35   17   34 1    
    36   17   35 1    
    37   17   36 1    
@<TRIPOS>SUBSTRUCTURE
     1 LIG         1 GROUP             0       ****    0 ROOT    
