@<TRIPOS>MOLECULE
:1pxn_ligand
37   39    1
SMALL
USER_CHARGES


@<TRIPOS>ATOM
      1 C6A        -2.4600    4.7530   25.0770 C.3       1 LIG        -0.0650 
      2 C1A        -1.4870    5.8930   25.1480 C.2       1 LIG         0.1693 
      3 N2A        -1.8230    6.9900   24.4360 N.2       1 LIG        -0.4803 
      4 C3A        -1.0310    8.0170   24.4600 C.2       1 LIG         0.5009 
      5 N7A        -1.3230    9.1160   23.7770 N.pl3     1 LIG        -0.7800 
      6 C8A        -0.5270   10.3440   23.7120 C.3       1 LIG         0.0200 
      7 C5A        -0.3030    6.0690   25.8020 C.2       1 LIG        -0.1059 
      8 S4A         0.3640    7.7080   25.4720 S.3       1 LIG         0.0010 
      9 C4          0.5200    5.2340   26.7180 C.ar      1 LIG         0.6640 
     10 C5          0.1510    3.9250   27.0580 C.ar      1 LIG        -0.6890 
     11 N3          1.6430    5.8030   27.2150 N.ar      1 LIG        -0.8390 
     12 C2          2.4550    5.1190   28.0750 C.ar      1 LIG         0.9663 
     13 N1          2.1790    3.8330   28.4650 N.ar      1 LIG        -0.8390 
     14 C6          1.0330    3.2900   27.9350 C.ar      1 LIG         0.6530 
     15 N7          3.5610    5.6870   28.5730 N.pl3     1 LIG        -0.7043 
     16 C1B         4.0940    6.9570   28.3490 C.ar      1 LIG         0.2000 
     17 C2B         3.4980    7.8870   27.4780 C.ar      1 LIG        -0.1150 
     18 C3B         3.9930    9.1440   27.2280 C.ar      1 LIG        -0.1150 
     19 C6B         5.2890    7.3980   28.9900 C.ar      1 LIG        -0.1150 
     20 C5B         5.8130    8.6910   28.7490 C.ar      1 LIG        -0.1150 
     21 C4B         5.1570    9.5680   27.8590 C.ar      1 LIG         0.1500 
     22 O7B         5.6020   10.8530   27.5600 O.3       1 LIG        -0.5850 
     23 H6A1       -2.6881    4.3760   26.0736 H         1 LIG         0.0600 
     24 H6A2       -3.4150    5.0491   24.6439 H         1 LIG         0.0600 
     25 H6A3       -2.0702    3.9214   24.4946 H         1 LIG         0.0600 
     26 HN7A       -2.1709    9.0956   23.2291 H         1 LIG         0.3800 
     27 H8A1       -1.1758   11.2163   23.7907 H         1 LIG         0.0600 
     28 H8A2        0.2174   10.3868   24.5069 H         1 LIG         0.0600 
     29 H8A3       -0.0046   10.3945   22.7571 H         1 LIG         0.0600 
     30 H5         -0.7238    3.4254   26.6745 H         1 LIG         0.1970 
     31 H6          0.8401    2.2786   28.2159 H         1 LIG         0.0110 
     32 HN7         4.1117    5.0770   29.1711 H         1 LIG         0.3800 
     33 H2B         2.6255    7.7479   26.8894 H         1 LIG         0.1150 
     34 H3B         3.4757    9.7957   26.5381 H         1 LIG         0.1150 
     35 H6B         5.7824    6.7482   29.6945 H         1 LIG         0.1150 
     36 H5B         6.7140    9.0063   29.2543 H         1 LIG         0.1150 
     37 HO7B        5.0594   11.2712   26.9069 H         1 LIG         0.4350 
@<TRIPOS>BOND
     1    1    2 1    
     2    1   23 1    
     3    1   24 1    
     4    1   25 1    
     5    2    3 1    
     6    2    7 2    
     7    3    4 2    
     8    4    5 1    
     9    4    8 1    
    10    5    6 1    
    11    5   26 1    
    12    6   27 1    
    13    6   28 1    
    14    6   29 1    
    15    7    8 1    
    16    7    9 1    
    17    9   10 ar   
    18    9   11 ar   
    19   10   14 ar   
    20   10   30 1    
    21   11   12 ar   
    22   12   13 ar   
    23   12   15 1    
    24   13   14 ar   
    25   14   31 1    
    26   15   16 1    
    27   15   32 1    
    28   16   17 ar   
    29   16   19 ar   
    30   17   18 ar   
    31   17   33 1    
    32   18   21 ar   
    33   18   34 1    
    34   19   20 ar   
    35   19   35 1    
    36   20   21 ar   
    37   20   36 1    
    38   21   22 1    
    39   22   37 1    
@<TRIPOS>SUBSTRUCTURE
     1 LIG         1 GROUP             0       ****    0 ROOT    
