@<TRIPOS>MOLECULE
:3fv2_ligand
36   37    1
SMALL
USER_CHARGES


@<TRIPOS>ATOM
      1 O          -3.3740   14.3160   17.3480 O.co2     1 LIG        -0.7225 
      2 C          -4.0420   15.1370   18.0250 C.2       1 LIG         0.4450 
      3 OXT        -3.5440   16.1570   18.5470 O.co2     1 LIG        -0.7225 
      4 CA         -5.5100   14.9030   18.2720 C.3       1 LIG         0.0625 
      5 N          -5.9230   13.6230   17.7090 N.4       1 LIG         0.2475 
      6 CB         -5.7850   15.0030   19.7730 C.3       1 LIG        -0.1200 
      7 CAJ        -7.2530   15.2080   20.1480 C.3       1 LIG         0.2000 
      8 CAD        -7.8230   16.4930   19.5790 C.2       1 LIG         0.6000 
      9 OAA        -9.0390   16.4910   19.2390 O.co2     1 LIG        -0.8000 
     10 OAE        -7.0590   17.4880   19.4470 O.co2     1 LIG        -0.8000 
     11 CAR        -7.4110   15.1890   21.6760 C.3       1 LIG        -0.1200 
     12 OAI        -8.0480   14.1220   19.6570 O.3       1 LIG        -0.4000 
     13 CAH        -8.3820   13.2310   20.7160 C.3       1 LIG         0.1700 
     14 CAQ        -8.5000   14.1530   21.9240 C.3       1 LIG         0.1700 
     15 OAP        -9.7640   14.8320   21.9940 O.3       1 LIG        -0.4000 
     16 CAO       -10.9150   14.0000   21.8060 C.3       1 LIG         0.1400 
     17 CAF       -10.8710   13.3470   20.4260 C.3       1 LIG         0.2050 
     18 OAB       -10.8380   14.3750   19.4220 O.3       1 LIG        -0.6830 
     19 CAG        -9.6370   12.4590   20.3260 C.3       1 LIG         0.2050 
     20 OAC        -9.4990   11.9160   19.0000 O.3       1 LIG        -0.6830 
     21 HA         -6.0807   15.6580   17.7490 H         1 LIG         0.0600 
     22 H1         -6.9196   13.4967   17.8335 H         1 LIG         0.2100 
     23 H2         -5.7138   13.6214   16.7192 H         1 LIG         0.2100 
     24 H3         -5.4184   12.8676   18.1523 H         1 LIG         0.2100 
     25 HB1        -5.2155   15.7861   20.2753 H         1 LIG         0.0600 
     26 HB2        -5.4608   14.0721   20.2225 H         1 LIG         0.0600 
     27 HAR1       -7.6884   16.1521   22.0931 H         1 LIG         0.0600 
     28 HAR2       -6.4936   14.9016   22.1763 H         1 LIG         0.0600 
     29 HAH        -7.5428   12.5475   20.8472 H         1 LIG         0.0300 
     30 HAQ        -8.3469   13.6229   22.8618 H         1 LIG         0.0300 
     31 HAO1      -11.7912   14.6320   21.9270 H         1 LIG         0.0300 
     32 HAO2      -10.9728   13.2190   22.5599 H         1 LIG         0.0300 
     33 HAF       -11.7625   12.7527   20.2746 H         1 LIG         0.0600 
     34 HOAB      -10.0570   14.9049   19.5428 H         1 LIG         0.4180 
     35 HAG        -9.7629   11.6201   21.0092 H         1 LIG         0.0600 
     36 HOAC       -9.3180   12.6315   18.4015 H         1 LIG         0.4180 
@<TRIPOS>BOND
     1    1    2 2    
     2    2    3 1    
     3    2    4 1    
     4    4    5 1    
     5    4    6 1    
     6    4   21 1    
     7    5   22 1    
     8    5   23 1    
     9    5   24 1    
    10    6    7 1    
    11    6   25 1    
    12    6   26 1    
    13    7    8 1    
    14    7   11 1    
    15    7   12 1    
    16    8    9 2    
    17    8   10 1    
    18   11   14 1    
    19   11   27 1    
    20   11   28 1    
    21   12   13 1    
    22   13   14 1    
    23   13   19 1    
    24   13   29 1    
    25   14   15 1    
    26   14   30 1    
    27   15   16 1    
    28   16   17 1    
    29   16   31 1    
    30   16   32 1    
    31   17   18 1    
    32   17   19 1    
    33   17   33 1    
    34   18   34 1    
    35   19   20 1    
    36   19   35 1    
    37   20   36 1    
@<TRIPOS>SUBSTRUCTURE
     1 LIG         1 GROUP             0       ****    0 ROOT    
