@<TRIPOS>MOLECULE
:1c5z_ligand
18   18    1
SMALL
USER_CHARGES


@<TRIPOS>ATOM
      1 C1          8.7740    0.7720   25.1310 C.ar      1 LIG        -0.1190 
      2 C2          8.6590    1.9420   25.9110 C.ar      1 LIG        -0.0900 
      3 C3          9.0010    3.1910   25.3970 C.ar      1 LIG        -0.1060 
      4 C4          9.4630    3.2990   24.0930 C.ar      1 LIG         0.0130 
      5 C5          9.5890    2.1720   23.3030 C.ar      1 LIG        -0.1060 
      6 C6          9.2490    0.9350   23.8170 C.ar      1 LIG        -0.0900 
      7 C           8.4270   -0.4950   25.6370 C.2       1 LIG         0.8270 
      8 N1          7.8210   -0.6090   26.8000 N.pl3     1 LIG        -0.8850 
      9 N2          8.7180   -1.5550   24.9310 N.pl3     1 LIG        -0.8850 
     10 H2          8.3067    1.9023   26.9306 H         1 LIG         0.1290 
     11 H3          8.9043    4.0739   26.0115 H         1 LIG         0.1410 
     12 H4          9.7254    4.2669   23.6913 H         1 LIG         0.1190 
     13 H5          9.9408    2.2654   22.2865 H         1 LIG         0.1410 
     14 H6          9.3540    0.0898   23.1526 H         1 LIG         0.1290 
     15 H11         7.6798   -1.5338   27.1975 H         1 LIG         0.4455 
     16 H12         7.5754    0.2039   27.3517 H         1 LIG         0.4455 
     17 H21         8.5470   -2.4720   25.3330 H         1 LIG         0.4455 
     18 H22         9.3160   -1.5062   24.1154 H         1 LIG         0.4455 
@<TRIPOS>BOND
     1    1    2 ar   
     2    1    6 ar   
     3    1    7 1    
     4    2    3 ar   
     5    2   10 1    
     6    3    4 ar   
     7    3   11 1    
     8    4    5 ar   
     9    4   12 1    
    10    5    6 ar   
    11    5   13 1    
    12    6   14 1    
    13    7    8 2    
    14    7    9 1    
    15    8   15 1    
    16    8   16 1    
    17    9   17 1    
    18    9   18 1    
@<TRIPOS>SUBSTRUCTURE
     1 LIG         1 GROUP             0       ****    0 ROOT    
