1c5z_ligand

Created by X-TOOL on Fri Nov 18 12:34:36 2016
 18 18  0  0  0  0  0  0  0  0999 V2000
    8.7740    0.7720   25.1310  C 0  0  0  1  0  3
    8.6590    1.9420   25.9110  C 0  0  0  2  0  3
    9.0010    3.1910   25.3970  C 0  0  0  2  0  3
    9.4630    3.2990   24.0930  C 0  0  0  2  0  3
    9.5890    2.1720   23.3030  C 0  0  0  2  0  3
    9.2490    0.9350   23.8170  C 0  0  0  2  0  3
    8.4270   -0.4950   25.6370  C 0  3  0  1  0  3
    7.8210   -0.6090   26.8000  N 0  0  0  3  0  3
    8.7180   -1.5550   24.9310  N 0  0  0  3  0  3
    8.2975    1.8677   26.9302  H 0  0  0  1  0  1
    8.9064    4.0768   26.0146  H 0  0  0  1  0  1
    9.7261    4.2713   23.6923  H 0  0  0  1  0  1
    9.9526    2.2579   22.2854  H 0  0  0  1  0  1
    9.3519    0.0599   23.1856  H 0  0  0  1  0  1
    7.5713   -1.5406   27.1615  H 0  0  0  1  0  1
    7.5965    0.2334   27.3485  H 0  0  0  1  0  1
    9.1923   -1.4543   24.0223  H 0  0  0  1  0  1
    8.4731   -2.4915   25.2831  H 0  0  0  1  0  1
  1  2  4  0  0  1
  1  6  4  0  0  1
  1  7  1  0  0  2
  2  3  4  0  0  1
  3  4  4  0  0  1
  4  5  4  0  0  1
  5  6  4  0  0  1
  7  8  2  0  0  2
  7  9  2  0  0  2
  2 10  1  0  0  2
  3 11  1  0  0  2
  4 12  1  0  0  2
  5 13  1  0  0  2
  6 14  1  0  0  2
  8 15  1  0  0  2
  8 16  1  0  0  2
  9 17  1  0  0  2
  9 18  1  0  0  2
M  END
> <MOLECULAR_FORMULA>
C7H9N2

> <MOLECULAR_WEIGHT>
121.1

> <NUM_HB_ATOMS>
2  

> <NUM_ROTOR>
0  

> <XLOGP2>
0.53 

$$$$
