@<TRIPOS>MOLECULE
:1ydr_ligand
38   40    1
SMALL
USER_CHARGES


@<TRIPOS>ATOM
      1 C1          6.9220    9.9070    3.2590 C.ar      1 LIG        -0.2361 
      2 C2          7.2230    9.9710    1.8620 C.ar      1 LIG        -0.0460 
      3 C3          6.2060   10.0250    0.8770 C.ar      1 LIG        -0.1533 
      4 C4          4.8490   10.0170    1.2990 C.ar      1 LIG        -0.1818 
      5 C5          4.5100    9.9570    2.6830 C.ar      1 LIG        -0.2505 
      6 C6          3.1660    9.9490    3.1070 C.ar      1 LIG         0.3967 
      7 N7          2.8850    9.8900    4.4240 N.ar      1 LIG        -0.6841 
      8 C8          3.8100    9.8370    5.4060 C.ar      1 LIG         0.4845 
      9 C9          5.1500    9.8420    5.0600 C.ar      1 LIG        -0.7531 
     10 C10         5.5440    9.9020    3.6810 C.ar      1 LIG         0.6486 
     11 S           8.2560    9.8400    4.4310 S.o2      1 LIG         0.9819 
     12 O1          7.8680    8.9110    5.4940 O.2       1 LIG        -0.4680 
     13 O2          8.4870   11.2270    4.7360 O.2       1 LIG        -0.4680 
     14 N1'         9.4280    9.1390    3.5960 N.pl3     1 LIG        -0.5376 
     15 C2'        10.7840    9.7940    3.7670 C.3       1 LIG         0.1321 
     16 CM2        11.2730    9.6590    5.2290 C.3       1 LIG        -0.1433 
     17 C3'        11.8380    9.0210    2.9300 C.3       1 LIG         0.1700 
     18 N4'        11.6980    7.5310    3.1900 N.4       1 LIG        -0.2000 
     19 C5'        10.3790    6.9420    2.8730 C.3       1 LIG         0.1700 
     20 C6'         9.3930    7.6540    3.8060 C.3       1 LIG         0.0955 
     21 H2          8.2486    9.9851    1.5263 H         1 LIG         0.1382 
     22 H3          6.4556   10.0708   -0.1728 H         1 LIG         0.1414 
     23 H4          4.0656   10.0582    0.5555 H         1 LIG         0.1598 
     24 H6          2.3575    9.9728    2.4030 H         1 LIG         0.0566 
     25 H8          3.4641    9.8297    6.4252 H         1 LIG         0.0456 
     26 H9          5.8502    9.8691    5.8734 H         1 LIG         0.2410 
     27 H2'        10.7390   10.8414    3.4647 H         1 LIG         0.0733 
     28 HM21       12.1998   10.2112    5.3853 H         1 LIG         0.0600 
     29 HM22       10.5391    9.9899    5.9618 H         1 LIG         0.0600 
     30 HM23       11.4894    8.6292    5.5102 H         1 LIG         0.0600 
     31 H3'1       12.8526    9.3474    3.1623 H         1 LIG         0.0600 
     32 H3'2       11.6817    9.2078    1.8668 H         1 LIG         0.0600 
     33 H4'1       11.8989    7.3459    4.1627 H         1 LIG         0.3100 
     34 H4'2       12.3871    7.0508    2.6279 H         1 LIG         0.3100 
     35 H5'1       10.1835    5.9069    2.7699 H         1 LIG         0.0600 
     36 H5'2       10.1591    7.2739    1.8571 H         1 LIG         0.0600 
     37 H6'1        8.3914    7.2801    3.5857 H         1 LIG         0.0733 
     38 H6'2        9.6223    7.3869    4.8396 H         1 LIG         0.0733 
@<TRIPOS>BOND
     1    1   11 1    
     2    1   10 ar   
     3    1    2 ar   
     4    2    3 ar   
     5    2   21 1    
     6    3    4 ar   
     7    3   22 1    
     8    4    5 ar   
     9    4   23 1    
    10    5   10 ar   
    11    5    6 ar   
    12    6    7 ar   
    13    6   24 1    
    14    7    8 ar   
    15    8    9 ar   
    16    8   25 1    
    17    9   10 ar   
    18    9   26 1    
    19   11   14 1    
    20   11   13 2    
    21   11   12 2    
    22   14   20 1    
    23   14   15 1    
    24   15   17 1    
    25   15   16 1    
    26   15   27 1    
    27   16   28 1    
    28   16   29 1    
    29   16   30 1    
    30   17   18 1    
    31   17   31 1    
    32   17   32 1    
    33   18   19 1    
    34   18   33 1    
    35   18   34 1    
    36   19   20 1    
    37   19   35 1    
    38   19   36 1    
    39   20   37 1    
    40   20   38 1    
@<TRIPOS>SUBSTRUCTURE
     1 LIG         1 GROUP             0       ****    0 ROOT    
