:3aru_ligand
                    3D
 Schrodinger Suite 2020-1.
 38 39  0  0  1  0            999 V2000
    0.0080   11.3070   12.5930 C   0  0  0  0  0  0
   -0.2810   11.6970   14.0210 C   0  0  0  0  0  0
   -0.4630   12.8800   14.2940 O   0  0  0  0  0  0
   -0.3970   10.5890   15.1230 C   0  0  0  0  0  0
   -0.8910   11.1750   16.4570 C   0  0  0  0  0  0
   -0.8110   10.0260   17.5150 C   0  0  0  0  0  0
   -1.4910    8.6740   17.0680 C   0  0  0  0  0  0
   -1.6900    7.7910   18.2980 N   0  0  0  0  0  0
   -2.8830    7.8860   19.0530 C   0  0  0  0  0  0
   -3.7630    8.6670   18.6890 O   0  0  0  0  0  0
   -3.0170    7.0790   20.2120 C   0  0  0  0  0  0
   -4.0130    6.9290   21.1020 N   0  0  0  0  0  0
   -5.3040    7.6760   21.0500 C   0  0  0  0  0  0
   -3.6560    6.0100   22.0180 C   0  0  0  0  0  0
   -2.4160    5.5500   21.7210 N   0  0  0  0  0  0
   -1.9960    6.1840   20.6110 C   0  0  0  0  0  0
   -0.7920    6.1000   19.8810 N   0  0  0  0  0  0
    0.3360    5.1650   20.2710 C   0  0  0  0  0  0
   -0.6440    6.9130   18.7670 C   0  0  0  0  0  0
    0.4020    6.8180   18.1430 O   0  0  0  0  0  0
    0.4253   10.3016   12.5828 H   0  0  0  0  0  0
   -0.9009   11.3271   11.9919 H   0  0  0  0  0  0
    0.7466   11.9692   12.1466 H   0  0  0  0  0  0
    0.5816   10.1246   15.2489 H   0  0  0  0  0  0
   -1.0771    9.8211   14.7544 H   0  0  0  0  0  0
   -1.9179   11.5288   16.3594 H   0  0  0  0  0  0
   -0.2723   12.0123   16.7786 H   0  0  0  0  0  0
   -1.2717   10.3865   18.4356 H   0  0  0  0  0  0
    0.2307    9.8230   17.7618 H   0  0  0  0  0  0
   -0.8675    8.1560   16.3406 H   0  0  0  0  0  0
   -2.4428    8.8632   16.5696 H   0  0  0  0  0  0
   -6.0013    7.2663   21.7812 H   0  0  0  0  0  0
   -5.1281    8.7270   21.2803 H   0  0  0  0  0  0
   -5.7517    7.5989   20.0607 H   0  0  0  0  0  0
   -4.2600    5.6865   22.8531 H   0  0  0  0  0  0
    1.2831    5.7002   20.3553 H   0  0  0  0  0  0
    0.1391    4.6907   21.2325 H   0  0  0  0  0  0
    0.4471    4.3767   19.5260 H   0  0  0  0  0  0
  1  2  1  0  0  0
  1 21  1  0  0  0
  1 22  1  0  0  0
  1 23  1  0  0  0
  2  3  2  0  0  0
  2  4  1  0  0  0
  4  5  1  0  0  0
  4 24  1  0  0  0
  4 25  1  0  0  0
  5  6  1  0  0  0
  5 26  1  0  0  0
  5 27  1  0  0  0
  6  7  1  0  0  0
  6 28  1  0  0  0
  6 29  1  0  0  0
  7  8  1  0  0  0
  7 30  1  0  0  0
  7 31  1  0  0  0
  8  9  1  0  0  0
  8 19  1  0  0  0
  9 10  2  0  0  0
  9 11  1  0  0  0
 11 12  1  0  0  0
 11 16  2  0  0  0
 12 13  1  0  0  0
 12 14  1  0  0  0
 13 32  1  0  0  0
 13 33  1  0  0  0
 13 34  1  0  0  0
 14 15  2  0  0  0
 14 35  1  0  0  0
 15 16  1  0  0  0
 16 17  1  0  0  0
 17 18  1  0  0  0
 17 19  1  0  0  0
 18 36  1  0  0  0
 18 37  1  0  0  0
 18 38  1  0  0  0
 19 20  2  0  0  0
M  END
> <s_pdb_PDB_ID>


> <s_pdb_PDB_CLASSIFICATION>
3ARU_PROTEIN

> <s_pdb_PDB_format_version>
3.0

> <b_ppw_prepared>
1

> <s_ppw_prepared_with_version>
2020-1

> <b_ppw_created_disulfur>
1

> <s_ppw_het_states>
eJxVkksOwyAMBa+Csk4rTPiEXqXKDaLuuopy94JNNSILNAw/+ynXIsvLvdsXa5XV+WN1HQO4gRFMYAYLuIN1YPLegwIGcAMjmMAMFnAHeU30tc6jO2tM6NHaC5OI7IgqEiKpyIisoiCKih2xq6iTsCqFeCyZMAkZOwwtpVnkccTWLDyZREREFYkj6X+HkKyFKuRr0c6iIrRS0dKbefhnw2vpl7e/qk/v1X2+52njcdw/YxCDbQ==

> <r_ff_Potential_Energy-OPLS3e>
-384368.243076638

> <r_ff_RMS_Derivative-OPLS3e>
0.0493662088670236

> <b_ff_Minimization_Converged-OPLS3e>
1

> <r_i_Potential_Energy-OPLS_2005>
-16963.8439801656

> <r_i_RMS_Derivative-OPLS_2005>
0.0484614198753394

> <r_i_Max_Derivative-OPLS_2005>
1.16412678766227

> <r_i_Stretch_Energy-OPLS_2005>
17.8458800018338

> <r_i_Bend_Energy-OPLS_2005>
364.695489611685

> <r_i_LJ-14_Energy-OPLS_2005>
741.766559159149

> <r_i_El-14_Energy-OPLS_2005>
-346.218281123928

> <r_i_Van_der_Waals_Energy-OPLS_2005>
-1195.1342950072

> <r_i_Electrostatic_Energy-OPLS_2005>
-16739.5130108247

> <r_i_Dihedral_Energy-OPLS_2005>
192.713678017519

> <r_i_target_temperature>
298

> <s_user_Residue_ID>
_:1

$$$$
