@<TRIPOS>MOLECULE
:3aru_ligand
38   39    1
SMALL
USER_CHARGES


@<TRIPOS>ATOM
      1 CAA         0.0080   11.3070   12.5930 C.3       1 LIG        -0.1800 
      2 CAM        -0.2810   11.6970   14.0210 C.2       1 LIG         0.4700 
      3 OAD        -0.4630   12.8800   14.2940 O.2       1 LIG        -0.4700 
      4 CAJ        -0.3970   10.5890   15.1230 C.3       1 LIG        -0.1200 
      5 CAH        -0.8910   11.1750   16.4570 C.3       1 LIG        -0.1200 
      6 CAI        -0.8110   10.0260   17.5150 C.3       1 LIG        -0.1200 
      7 CAK        -1.4910    8.6740   17.0680 C.3       1 LIG        -0.0703 
      8 N1         -1.6900    7.7910   18.2980 N.pl3     1 LIG        -0.2947 
      9 C6         -2.8830    7.8860   19.0530 C.ar      1 LIG         0.7455 
     10 O6         -3.7630    8.6670   18.6890 O.2       1 LIG        -0.5080 
     11 C5         -3.0170    7.0790   20.2120 C.ar      1 LIG        -0.2140 
     12 N7         -4.0130    6.9290   21.1020 N.pl3     1 LIG        -0.0735 
     13 CAB        -5.3040    7.6760   21.0500 C.3       1 LIG        -0.0575 
     14 C8         -3.6560    6.0100   22.0180 C.ar      1 LIG         0.2750 
     15 N9         -2.4160    5.5500   21.7210 N.2       1 LIG        -0.5630 
     16 C4         -1.9960    6.1840   20.6110 C.ar      1 LIG         0.3450 
     17 N3         -0.7920    6.1000   19.8810 N.pl3     1 LIG        -0.2572 
     18 CAC         0.3360    5.1650   20.2710 C.3       1 LIG        -0.1303 
     19 C2         -0.6440    6.9130   18.7670 C.ar      1 LIG         0.7530 
     20 O2          0.4020    6.8180   18.1430 O.2       1 LIG        -0.5080 
     21 HAA1        0.4253   10.3016   12.5828 H         1 LIG         0.0600 
     22 HAA2       -0.9009   11.3271   11.9919 H         1 LIG         0.0600 
     23 HAA3        0.7466   11.9692   12.1466 H         1 LIG         0.0600 
     24 HAJ1        0.5816   10.1246   15.2489 H         1 LIG         0.0600 
     25 HAJ2       -1.0771    9.8211   14.7544 H         1 LIG         0.0600 
     26 HAH1       -1.9179   11.5288   16.3594 H         1 LIG         0.0600 
     27 HAH2       -0.2723   12.0123   16.7786 H         1 LIG         0.0600 
     28 HAI1       -1.2717   10.3865   18.4356 H         1 LIG         0.0600 
     29 HAI2        0.2307    9.8230   17.7618 H         1 LIG         0.0600 
     30 HAK1       -0.8675    8.1560   16.3406 H         1 LIG         0.0600 
     31 HAK2       -2.4428    8.8632   16.5696 H         1 LIG         0.0600 
     32 HAB1       -6.0013    7.2663   21.7812 H         1 LIG         0.0600 
     33 HAB2       -5.1281    8.7270   21.2803 H         1 LIG         0.0600 
     34 HAB3       -5.7517    7.5989   20.0607 H         1 LIG         0.0600 
     35 H8         -4.2600    5.6865   22.8531 H         1 LIG         0.0780 
     36 HAC1        1.2831    5.7002   20.3553 H         1 LIG         0.0600 
     37 HAC2        0.1391    4.6907   21.2325 H         1 LIG         0.0600 
     38 HAC3        0.4471    4.3767   19.5260 H         1 LIG         0.0600 
@<TRIPOS>BOND
     1    1    2 1    
     2    1   21 1    
     3    1   22 1    
     4    1   23 1    
     5    2    3 2    
     6    2    4 1    
     7    4    5 1    
     8    4   24 1    
     9    4   25 1    
    10    5    6 1    
    11    5   26 1    
    12    5   27 1    
    13    6    7 1    
    14    6   28 1    
    15    6   29 1    
    16    7    8 1    
    17    7   30 1    
    18    7   31 1    
    19    8    9 ar   
    20    8   19 ar   
    21    9   10 2    
    22    9   11 ar   
    23   11   12 ar   
    24   11   16 ar   
    25   12   13 1    
    26   12   14 ar   
    27   13   32 1    
    28   13   33 1    
    29   13   34 1    
    30   14   15 ar   
    31   14   35 1    
    32   15   16 ar   
    33   16   17 ar   
    34   17   18 1    
    35   17   19 ar   
    36   18   36 1    
    37   18   37 1    
    38   18   38 1    
    39   19   20 2    
@<TRIPOS>SUBSTRUCTURE
     1 LIG         1 GROUP             0       ****    0 ROOT    
