@<TRIPOS>MOLECULE
:3g2z_ligand
21   22    1
SMALL
USER_CHARGES


@<TRIPOS>ATOM
      1 O13        -6.2580   51.5760    8.7620 O.3       1 LIG        -0.4040 
      2 C11        -6.4170   51.8200    9.9490 C.2       1 LIG         0.0488 
      3 C12        -5.2890   52.3690   10.7330 C.2       1 LIG        -0.1150 
      4 C7         -5.4420   52.7010   12.0280 C.2       1 LIG         0.0180 
      5 C8         -6.7740   52.5630   12.7320 C.2       1 LIG        -0.1150 
      6 C9         -7.9760   52.4870   11.7940 C.3       1 LIG        -0.1200 
      7 C10        -7.7570   51.5620   10.6070 C.3       1 LIG        -0.1200 
      8 N6         -4.4610   53.1560   12.8200 N.pl3     1 LIG        -0.5717 
      9 C5         -3.1360   53.2840   12.5140 C.ar      1 LIG         0.6124 
     10 N4         -2.6620   53.5610   11.2920 N.2       1 LIG        -0.5168 
     11 N3         -1.2670   53.5860   11.4610 N.ar      1 LIG        -0.1894 
     12 N2         -0.9850   53.3350   12.8170 N.ar      1 LIG        -0.1894 
     13 N1         -2.1990   53.1450   13.4760 N.ar      1 LIG        -0.5168 
     14 HO13       -5.3734   51.8218    8.5385 H         1 LIG         0.3552 
     15 H12        -4.3859   52.4740   10.1664 H         1 LIG         0.1150 
     16 H8         -6.9188   52.8323   13.7686 H         1 LIG         0.1150 
     17 H91        -8.1932   53.4979   11.4473 H         1 LIG         0.0600 
     18 H92        -8.8535   52.1618   12.3482 H         1 LIG         0.0600 
     19 H101       -7.7759   50.5233   10.9393 H         1 LIG         0.0600 
     20 H102       -8.5623   51.6798    9.8809 H         1 LIG         0.0600 
     21 HN6        -4.6553   53.1190   13.8098 H         1 LIG         0.3537 
@<TRIPOS>BOND
     1    1    2 1    
     2    1   14 1    
     3    2    3 2    
     4    2    7 1    
     5    3    4 1    
     6    3   15 1    
     7    4    5 2    
     8    4    8 1    
     9    5    6 1    
    10    5   16 1    
    11    6    7 1    
    12    6   17 1    
    13    6   18 1    
    14    7   19 1    
    15    7   20 1    
    16    8    9 1    
    17    8   21 1    
    18    9   10 ar   
    19    9   13 ar   
    20   10   11 ar   
    21   11   12 ar   
    22   12   13 ar   
@<TRIPOS>SUBSTRUCTURE
     1 LIG         1 GROUP             0       ****    0 ROOT    
