@<TRIPOS>MOLECULE
:3ehy_ligand
29   29    1
SMALL
USER_CHARGES


@<TRIPOS>ATOM
      1 O4         -1.0810   -6.6970   -4.0090 O.2       1 LIG        -0.4680 
      2 S1         -0.8610   -5.5850   -4.8790 S.o2      1 LIG         0.8327 
      3 O3          0.3440   -5.6660   -5.6630 O.2       1 LIG        -0.4680 
      4 N1         -0.8580   -4.2810   -3.9320 N.pl3     1 LIG        -0.6527 
      5 C2         -0.5330   -2.9680   -4.5110 C.3       1 LIG         0.1321 
      6 C10         0.2790   -2.1440   -3.5090 C.3       1 LIG        -0.1433 
      7 C1         -1.7860   -2.2190   -4.8830 C.2       1 LIG         0.6000 
      8 O2         -1.8580   -1.5180   -5.8730 O.co2     1 LIG        -0.8000 
      9 O1         -2.8600   -2.3300   -4.1020 O.co2     1 LIG        -0.8000 
     10 C3         -2.0710   -5.6230   -5.9680 C.ar      1 LIG         0.1567 
     11 C4         -3.3590   -5.9330   -5.5370 C.ar      1 LIG        -0.1150 
     12 C5         -4.4230   -6.0050   -6.4540 C.ar      1 LIG        -0.1150 
     13 C6         -4.2010   -5.8490   -7.8280 C.ar      1 LIG         0.0850 
     14 C8         -2.9360   -5.5380   -8.2930 C.ar      1 LIG        -0.1150 
     15 C9         -1.8730   -5.4200   -7.3570 C.ar      1 LIG        -0.1150 
     16 O5         -5.2910   -5.9330   -8.6790 O.3       1 LIG        -0.2850 
     17 C7         -5.3380   -6.7060   -9.8690 C.3       1 LIG         0.1100 
     18 HN1        -1.6590   -4.2471   -3.3003 H         1 LIG         0.3572 
     19 H2          0.0217   -3.1258   -5.4232 H         1 LIG         0.0733 
     20 H101        0.5064   -1.1533   -3.9055 H         1 LIG         0.0600 
     21 H102       -0.2523   -2.0152   -2.5651 H         1 LIG         0.0600 
     22 H103        1.2308   -2.6275   -3.2938 H         1 LIG         0.0600 
     23 H4         -3.5427   -6.1142   -4.4954 H         1 LIG         0.1150 
     24 H5         -5.4189   -6.2235   -6.0961 H         1 LIG         0.1150 
     25 H8         -2.7601   -5.3635   -9.3431 H         1 LIG         0.1150 
     26 H9         -0.8934   -5.1642   -7.7331 H         1 LIG         0.1150 
     27 H71        -5.9713   -6.2150  -10.6029 H         1 LIG         0.0300 
     28 H72        -4.3537   -6.8687  -10.2834 H         1 LIG         0.0300 
     29 H73        -5.7776   -7.6795   -9.6523 H         1 LIG         0.0300 
@<TRIPOS>BOND
     1    1    2 2    
     2    2    3 2    
     3    2    4 1    
     4    2   10 1    
     5    4    5 1    
     6    4   18 1    
     7    5    6 1    
     8    5    7 1    
     9    5   19 1    
    10    6   20 1    
    11    6   21 1    
    12    6   22 1    
    13    7    8 2    
    14    7    9 1    
    15   10   11 ar   
    16   10   15 ar   
    17   11   12 ar   
    18   11   23 1    
    19   12   13 ar   
    20   12   24 1    
    21   13   14 ar   
    22   13   16 1    
    23   14   15 ar   
    24   14   25 1    
    25   15   26 1    
    26   16   17 1    
    27   17   27 1    
    28   17   28 1    
    29   17   29 1    
@<TRIPOS>SUBSTRUCTURE
     1 LIG         1 GROUP             0       ****    0 ROOT    
