@<TRIPOS>MOLECULE
:3udh_ligand
27   29    1
SMALL
USER_CHARGES


@<TRIPOS>ATOM
      1 C1         23.0870   36.3340   41.4120 C.3       1 LIG         0.1150 
      2 C2         24.4800   36.8450   41.2850 C.ar      1 LIG        -0.1150 
      3 C3         22.9810   36.1650   42.9120 C.2       1 LIG         0.5000 
      4 C4         22.0820   37.3700   40.9790 C.3       1 LIG        -0.1200 
      5 C5         22.7770   35.0610   40.6520 C.3       1 LIG         0.1700 
      6 C6         25.0570   36.9900   42.5110 C.ar      1 LIG         0.0850 
      7 C7         25.1800   37.1610   40.1580 C.ar      1 LIG        -0.1150 
      8 N1         24.1670   36.5930   43.5030 N.am      1 LIG        -0.3850 
      9 O1         21.9260   35.8730   43.4650 O.2       1 LIG        -0.5000 
     10 C8         20.9440   36.6090   40.3350 C.3       1 LIG         0.1700 
     11 N2         21.5990   35.3980   39.7910 N.4       1 LIG        -0.2000 
     12 C9         26.3310   37.4800   42.6680 C.ar      1 LIG        -0.1150 
     13 C10        26.4660   37.6510   40.2870 C.ar      1 LIG        -0.1150 
     14 C11        27.0370   37.7960   41.5320 C.ar      1 LIG        -0.1150 
     15 H41        22.5150   38.0184   40.2150 H         1 LIG         0.0600 
     16 H42        21.7330   38.0298   41.7708 H         1 LIG         0.0600 
     17 H51        22.5569   34.2040   41.2904 H         1 LIG         0.0600 
     18 H52        23.6042   34.8110   40.0053 H         1 LIG         0.0600 
     19 H7         24.7325   37.0497   39.1813 H         1 LIG         0.1150 
     20 HN1        24.3677   36.6674   44.4929 H         1 LIG         0.3000 
     21 H81        20.4118   37.1840   39.5810 H         1 LIG         0.0600 
     22 H82        20.2221   36.2996   41.0916 H         1 LIG         0.0600 
     23 H21        20.9571   34.6155   39.6954 H         1 LIG         0.3100 
     24 H22        21.9555   35.6478   38.8712 H         1 LIG         0.3100 
     25 H9         26.7705   37.5988   43.6480 H         1 LIG         0.1150 
     26 H10        27.0316   37.9218   39.4090 H         1 LIG         0.1150 
     27 H11        28.0438   38.1751   41.6173 H         1 LIG         0.1150 
@<TRIPOS>BOND
     1    1    2 1    
     2    1    3 1    
     3    1    4 1    
     4    1    5 1    
     5    2    6 ar   
     6    2    7 ar   
     7    3    8 am   BACKBONE|DICT|INTERRES
     8    3    9 2    
     9    4   10 1    
    10    4   15 1    
    11    4   16 1    
    12    5   11 1    
    13    5   17 1    
    14    5   18 1    
    15    6    8 1    
    16    6   12 ar   
    17    7   13 ar   
    18    7   19 1    
    19    8   20 1    
    20   10   11 1    
    21   10   21 1    
    22   10   22 1    
    23   11   23 1    
    24   11   24 1    
    25   12   14 ar   
    26   12   25 1    
    27   13   14 ar   
    28   13   26 1    
    29   14   27 1    
@<TRIPOS>SUBSTRUCTURE
     1 LIG         1 GROUP             0       ****    0 ROOT    
