@<TRIPOS>MOLECULE
:2brb_ligand
42   45    1
SMALL
USER_CHARGES


@<TRIPOS>ATOM
      1 C2         14.3110    0.2600    9.6510 C.ar      1 LIG         0.8740 
      2 C10        18.3220   -1.7000    9.2930 C.2       1 LIG         0.5364 
      3 C11        19.6470   -1.9520    8.9490 C.ar      1 LIG        -0.4134 
      4 C12        20.3240   -3.1340    9.2430 C.ar      1 LIG        -0.1150 
      5 C13        21.6530   -3.2690    8.8360 C.ar      1 LIG        -0.1150 
      6 C14        22.2900   -2.2420    8.1380 C.ar      1 LIG        -0.1150 
      7 C15        21.6140   -1.0560    7.8470 C.ar      1 LIG        -0.1150 
      8 C16        20.2910   -0.9400    8.2410 C.ar      1 LIG        -0.1150 
      9 C19        16.9690   -4.8120   10.0740 C.ar      1 LIG        -0.1150 
     10 C20        17.0350   -6.0670   10.6850 C.ar      1 LIG        -0.1150 
     11 C21        17.6450   -6.1780   11.9360 C.ar      1 LIG        -0.1150 
     12 C22        18.1740   -5.0270   12.5490 C.ar      1 LIG        -0.1150 
     13 N1         15.5150    0.4240    9.1270 N.ar      1 LIG        -0.8390 
     14 C6         16.4650   -0.5070    9.2980 C.ar      1 LIG         0.6500 
     15 O6         17.7520   -0.5450    8.8630 O.3       1 LIG        -0.1900 
     16 C5         16.2030   -1.6630   10.0320 C.ar      1 LIG        -0.3830 
     17 N9         14.5520   -2.8610   11.2950 N.pl3     1 LIG        -0.7800 
     18 C4         14.9180   -1.7990   10.5690 C.ar      1 LIG         0.8640 
     19 N3         14.0200   -0.8210   10.3510 N.ar      1 LIG        -0.8390 
     20 C17        18.1030   -3.7740   11.9320 C.ar      1 LIG        -0.1150 
     21 C1         17.3790   -2.4230   10.0340 C.2       1 LIG        -0.0280 
     22 C18        17.5000   -3.6660   10.6770 C.ar      1 LIG         0.0000 
     23 C23        12.6900   -2.5010   12.8800 C.3       1 LIG         0.1450 
     24 C8         13.1250   -3.1390   11.5520 C.3       1 LIG         0.0800 
     25 O24        12.1850   -1.1800   12.6450 O.3       1 LIG        -0.6830 
     26 H2         13.5058    0.9547    9.5448 H         1 LIG        -0.0320 
     27 H12        19.8612   -3.9534    9.7681 H         1 LIG         0.1150 
     28 H13        22.1879   -4.1813    9.0558 H         1 LIG         0.1150 
     29 H14        23.3164   -2.3637    7.8250 H         1 LIG         0.1150 
     30 H15        22.0960   -0.2664    7.2900 H         1 LIG         0.1150 
     31 H16        19.7704   -0.0655    7.9015 H         1 LIG         0.1150 
     32 H19        16.4562   -4.7120    9.1312 H         1 LIG         0.1150 
     33 H20        16.6088   -6.9366   10.2088 H         1 LIG         0.1150 
     34 H21        17.7003   -7.1349   12.4338 H         1 LIG         0.1150 
     35 H22        18.5995   -5.1334   13.5209 H         1 LIG         0.1150 
     36 HN9        15.2219   -3.6052   11.4354 H         1 LIG         0.3800 
     37 H17        18.5068   -2.9037   12.4291 H         1 LIG         0.1150 
     38 H231       13.5035   -2.4746   13.6069 H         1 LIG         0.0600 
     39 H232       11.8837   -3.0827   13.3268 H         1 LIG         0.0600 
     40 H81        13.0202   -4.2139   11.6657 H         1 LIG         0.0600 
     41 H82        12.4783   -2.8546   10.7201 H         1 LIG         0.0600 
     42 HO24       12.7978   -0.7373   12.0728 H         1 LIG         0.4180 
@<TRIPOS>BOND
     1    1   13 ar   
     2    1   19 ar   
     3    1   26 1    
     4    2    3 1    
     5    2   15 1    
     6    2   21 2    
     7    3    4 ar   
     8    3    8 ar   
     9    4    5 ar   
    10    4   27 1    
    11    5    6 ar   
    12    5   28 1    
    13    6    7 ar   
    14    6   29 1    
    15    7    8 ar   
    16    7   30 1    
    17    8   31 1    
    18    9   10 ar   
    19    9   22 ar   
    20    9   32 1    
    21   10   11 ar   
    22   10   33 1    
    23   11   12 ar   
    24   11   34 1    
    25   12   20 ar   
    26   12   35 1    
    27   13   14 ar   
    28   14   15 1    
    29   14   16 ar   
    30   16   18 ar   
    31   16   21 1    
    32   17   18 1    
    33   17   24 1    
    34   17   36 1    
    35   18   19 ar   
    36   20   22 ar   
    37   20   37 1    
    38   21   22 1    
    39   23   24 1    
    40   23   25 1    
    41   23   38 1    
    42   23   39 1    
    43   24   40 1    
    44   24   41 1    
    45   25   42 1    
@<TRIPOS>SUBSTRUCTURE
     1 LIG         1 GROUP             0       ****    0 ROOT    
