@<TRIPOS>MOLECULE
:3uex_ligand
55   54    1
SMALL
USER_CHARGES


@<TRIPOS>ATOM
      1 C1         -0.7930    2.2250   21.0740 C.2       1 LIG         0.7000 
      2 O1         -1.9940    1.8610   21.1150 O.co2     1 LIG        -0.8000 
      3 O2          0.1080    1.7000   21.7640 O.co2     1 LIG        -0.8000 
      4 C2         -0.4340    3.3740   20.1690 C.3       1 LIG        -0.2200 
      5 C3         -0.8990    4.6780   20.8120 C.3       1 LIG        -0.1200 
      6 C4         -2.0370    5.3190   20.0220 C.3       1 LIG        -0.1200 
      7 C5         -3.0720    5.9520   20.9370 C.3       1 LIG        -0.1200 
      8 C6         -4.0720    6.8100   20.1700 C.3       1 LIG        -0.1200 
      9 C7         -3.3440    7.8860   19.3750 C.3       1 LIG        -0.1200 
     10 C8         -4.1370    9.1690   19.3320 C.3       1 LIG        -0.1200 
     11 C9         -3.1970   10.2980   18.9430 C.3       1 LIG        -0.1200 
     12 C10        -4.0170   11.5370   18.6110 C.3       1 LIG        -0.1200 
     13 C11        -3.0960   12.7230   18.8150 C.3       1 LIG        -0.1200 
     14 C12        -3.8460   13.9770   18.4280 C.3       1 LIG        -0.1200 
     15 C13        -2.8480   15.0820   18.2380 C.3       1 LIG        -0.1200 
     16 C14        -3.5330   16.4330   18.1320 C.3       1 LIG        -0.1200 
     17 C15        -3.7780   16.8230   16.6750 C.3       1 LIG        -0.1200 
     18 C16        -4.5050   18.1520   16.6760 C.3       1 LIG        -0.1200 
     19 C17        -4.6580   18.7330   15.2940 C.3       1 LIG        -0.1200 
     20 C18        -4.8030   17.6680   14.2280 C.3       1 LIG        -0.1800 
     21 H21        -0.8547    3.2098   19.1766 H         1 LIG         0.0600 
     22 H22         0.6422    3.3693   20.0389 H         1 LIG         0.0600 
     23 H31        -0.0657    5.3791   20.8758 H         1 LIG         0.0600 
     24 H32        -1.2231    4.5234   21.8434 H         1 LIG         0.0600 
     25 H41        -2.5522    4.5897   19.3956 H         1 LIG         0.0600 
     26 H42        -1.5901    6.0414   19.3495 H         1 LIG         0.0600 
     27 H51        -2.5835    6.5700   21.6884 H         1 LIG         0.0600 
     28 H52        -3.6026    5.1739   21.4877 H         1 LIG         0.0600 
     29 H61        -4.7615    7.2442   20.8947 H         1 LIG         0.0600 
     30 H62        -4.6790    6.1973   19.5024 H         1 LIG         0.0600 
     31 H71        -3.1386    7.5361   18.3644 H         1 LIG         0.0600 
     32 H72        -2.3821    8.1018   19.8444 H         1 LIG         0.0600 
     33 H81        -4.4897    9.3561   20.3292 H         1 LIG         0.0600 
     34 H82        -4.9975    9.0811   18.6683 H         1 LIG         0.0600 
     35 H91        -2.5896   10.0261   18.0779 H         1 LIG         0.0600 
     36 H92        -2.5077   10.4808   19.7697 H         1 LIG         0.0600 
     37 H101       -4.8755   11.6319   19.2750 H         1 LIG         0.0600 
     38 H102       -4.3987   11.5002   17.5971 H         1 LIG         0.0600 
     39 H111       -2.1998   12.5948   18.2218 H         1 LIG         0.0600 
     40 H112       -2.7742   12.7941   19.8555 H         1 LIG         0.0600 
     41 H121       -4.6011   14.2182   19.1600 H         1 LIG         0.0600 
     42 H122       -4.3723   13.8292   17.4846 H         1 LIG         0.0600 
     43 H131       -2.1959   14.8932   17.3837 H         1 LIG         0.0600 
     44 H132       -2.1957   15.1128   19.1126 H         1 LIG         0.0600 
     45 H141       -2.8911   17.1861   18.5913 H         1 LIG         0.0600 
     46 H142       -4.4652   16.4456   18.6945 H         1 LIG         0.0600 
     47 H151       -4.3661   16.0388   16.1977 H         1 LIG         0.0600 
     48 H152       -2.8246   16.8961   16.1506 H         1 LIG         0.0600 
     49 H161       -3.9945   18.8781   17.3102 H         1 LIG         0.0600 
     50 H162       -5.4944   18.0083   17.1127 H         1 LIG         0.0600 
     51 H171       -3.7544   19.2927   15.0602 H         1 LIG         0.0600 
     52 H172       -5.4435   19.4688   15.2445 H         1 LIG         0.0600 
     53 H181       -5.0707   18.0799   13.2620 H         1 LIG         0.0600 
     54 H182       -3.9126   17.0559   14.1255 H         1 LIG         0.0600 
     55 H183       -5.6263   16.9979   14.4789 H         1 LIG         0.0600 
@<TRIPOS>BOND
     1    1    2 2    
     2    1    3 1    
     3    1    4 1    
     4    4    5 1    
     5    4   21 1    
     6    4   22 1    
     7    5    6 1    
     8    5   23 1    
     9    5   24 1    
    10    6    7 1    
    11    6   25 1    
    12    6   26 1    
    13    7    8 1    
    14    7   27 1    
    15    7   28 1    
    16    8    9 1    
    17    8   29 1    
    18    8   30 1    
    19    9   10 1    
    20    9   31 1    
    21    9   32 1    
    22   10   11 1    
    23   10   33 1    
    24   10   34 1    
    25   11   12 1    
    26   11   35 1    
    27   11   36 1    
    28   12   13 1    
    29   12   37 1    
    30   12   38 1    
    31   13   14 1    
    32   13   39 1    
    33   13   40 1    
    34   14   15 1    
    35   14   41 1    
    36   14   42 1    
    37   15   16 1    
    38   15   43 1    
    39   15   44 1    
    40   16   17 1    
    41   16   45 1    
    42   16   46 1    
    43   17   18 1    
    44   17   47 1    
    45   17   48 1    
    46   18   19 1    
    47   18   49 1    
    48   18   50 1    
    49   19   20 1    
    50   19   51 1    
    51   19   52 1    
    52   20   53 1    
    53   20   54 1    
    54   20   55 1    
@<TRIPOS>SUBSTRUCTURE
     1 LIG         1 GROUP             0       ****    0 ROOT    
