@<TRIPOS>MOLECULE
:3gnw_ligand
76   81    1
SMALL
USER_CHARGES


@<TRIPOS>ATOM
      1 O35        27.2090    6.8400   40.1460 O.2       1 LIG        -0.5000 
      2 C16        28.2350    6.4290   39.6280 C.2       1 LIG         0.6192 
      3 C17        29.2100    5.7280   40.5020 C.ar      1 LIG         0.3658 
      4 C43        29.6290    4.4390   40.2160 C.ar      1 LIG        -0.4470 
      5 C42        30.5430    3.8330   41.0740 C.ar      1 LIG         0.2270 
      6 C41        31.0460    4.5340   42.1850 C.ar      1 LIG        -0.4470 
      7 C40        30.6440    5.8340   42.4480 C.ar      1 LIG         0.3700 
      8 C44        31.1510    6.6080   43.6350 C.3       1 LIG        -0.0650 
      9 N39        29.7200    6.4160   41.6040 N.ar      1 LIG        -0.6780 
     10 N7         28.4990    6.6200   38.2610 N.am      1 LIG        -0.0317 
     11 C4         29.7960    6.5320   37.6850 C.ar      1 LIG        -0.0383 
     12 C3         30.8280    7.3740   38.1260 C.ar      1 LIG        -0.1150 
     13 C2         32.0890    7.3190   37.5480 C.ar      1 LIG        -0.1150 
     14 C8         27.3780    6.9220   37.3460 C.3       1 LIG         0.2611 
     15 C9         26.9060    5.6410   36.7090 C.3       1 LIG        -0.2552 
     16 S12        25.2010    5.5080   36.7120 S.o2      1 LIG         0.9408 
     17 O32        24.6590    6.6790   36.0270 O.2       1 LIG        -0.5300 
     18 O33        24.6740    5.5040   38.0560 O.2       1 LIG        -0.5300 
     19 C13        24.7630    3.9640   35.8880 C.3       1 LIG        -0.4339 
     20 C14        25.7620    3.5660   34.8060 C.3       1 LIG         0.1361 
     21 C37        25.3440    2.1900   34.2310 C.3       1 LIG        -0.1800 
     22 C38        25.8350    4.6180   33.6660 C.3       1 LIG        -0.1800 
     23 C15        27.1250    3.4330   35.5270 C.3       1 LIG        -0.0839 
     24 C10        27.7020    4.6770   36.1870 C.2       1 LIG         0.3536 
     25 N11        29.0900    4.7110   36.1600 N.2       1 LIG        -0.4685 
     26 C5         30.0430    5.6160   36.6560 C.ar      1 LIG         0.0788 
     27 C6         31.3110    5.5550   36.1070 C.ar      1 LIG         0.1500 
     28 O36        31.6040    4.6780   35.1050 O.3       1 LIG        -0.5850 
     29 C1         32.3180    6.4040   36.5510 C.ar      1 LIG        -0.1150 
     30 C18        27.8670    8.0410   36.3960 C.ar      1 LIG        -0.1150 
     31 C23        28.1250    9.3010   36.9200 C.ar      1 LIG         0.2200 
     32 F34        27.9370    9.4960   38.2230 F         1 LIG        -0.2200 
     33 C22        28.5550   10.3460   36.1000 C.ar      1 LIG        -0.1150 
     34 C21        28.7350   10.1290   34.7330 C.ar      1 LIG         0.0850 
     35 C20        28.4790    8.8560   34.2050 C.ar      1 LIG        -0.1150 
     36 C19        28.0420    7.8260   35.0300 C.ar      1 LIG        -0.1150 
     37 O24        29.1790   11.1700   33.9580 O.3       1 LIG        -0.2850 
     38 C25        29.4400   11.0410   32.5430 C.3       1 LIG         0.1818 
     39 C26        28.1320   10.9290   31.7720 C.ar      1 LIG        -0.0418 
     40 C31        28.0230   10.0310   30.7260 C.ar      1 LIG        -0.1150 
     41 C30        26.8260    9.8880   30.0340 C.ar      1 LIG        -0.1150 
     42 C29        25.7290   10.6630   30.3820 C.ar      1 LIG        -0.1150 
     43 C28        25.8350   11.5800   31.4400 C.ar      1 LIG        -0.1150 
     44 C27        27.0300   11.7070   32.1370 C.ar      1 LIG        -0.1150 
     45 H43        29.2496    3.9058   39.3559 H         1 LIG         0.1550 
     46 H42        30.8777    2.8248   40.8782 H         1 LIG         0.0650 
     47 H41        31.7699    4.0596   42.8280 H         1 LIG         0.1550 
     48 H441       30.7131    7.6063   43.6681 H         1 LIG         0.0600 
     49 H442       30.8941    6.0925   44.5606 H         1 LIG         0.0600 
     50 H443       32.2350    6.7116   43.5848 H         1 LIG         0.0600 
     51 H3         30.6417    8.0907   38.9131 H         1 LIG         0.1150 
     52 H2         32.8767    7.9750   37.8886 H         1 LIG         0.1150 
     53 H8         26.5478    7.3773   37.8873 H         1 LIG         0.0600 
     54 H9         26.7525    6.0167   35.7360 H         1 LIG         0.1787 
     55 H131       23.7825    4.0909   35.4413 H         1 LIG         0.1787 
     56 H132       24.6770    3.1918   36.6535 H         1 LIG         0.1787 
     57 H371       26.0769    1.8252   33.5135 H         1 LIG         0.0600 
     58 H372       25.2570    1.4360   35.0141 H         1 LIG         0.0600 
     59 H373       24.3812    2.2445   33.7221 H         1 LIG         0.0600 
     60 H381       26.6948    4.4301   33.0223 H         1 LIG         0.0600 
     61 H382       24.9535    4.5303   33.0299 H         1 LIG         0.0600 
     62 H383       25.8684    5.6626   33.9529 H         1 LIG         0.0600 
     63 H151       27.8528    3.0557   34.8060 H         1 LIG         0.0600 
     64 H152       27.0579    2.6597   36.2938 H         1 LIG         0.0600 
     65 HO36       32.4727    4.8187   34.7452 H         1 LIG         0.4350 
     66 H1         33.3040    6.3495   36.1159 H         1 LIG         0.1150 
     67 H22        28.7452   11.3209   36.5241 H         1 LIG         0.1150 
     68 H20        28.6307    8.6365   33.1598 H         1 LIG         0.1150 
     69 H19        27.9491    6.8855   34.5157 H         1 LIG         0.1150 
     70 H251       30.0998   10.1942   32.3468 H         1 LIG         0.0300 
     71 H252       29.9670   11.9337   32.2063 H         1 LIG         0.0300 
     72 H31        28.8740    9.4322   30.4409 H         1 LIG         0.1150 
     73 H30        26.7553    9.1784   29.2229 H         1 LIG         0.1150 
     74 H29        24.7973   10.5567   29.8458 H         1 LIG         0.1150 
     75 H28        24.9829   12.1822   31.7193 H         1 LIG         0.1150 
     76 H27        27.1022   12.4082   32.9555 H         1 LIG         0.1150 
@<TRIPOS>BOND
     1    1    2 2    
     2    2    3 1    
     3    2   10 am   BACKBONE|DICT|INTERRES
     4    3    4 ar   
     5    3    9 ar   
     6    4    5 ar   
     7    4   45 1    
     8    5    6 ar   
     9    5   46 1    
    10    6    7 ar   
    11    6   47 1    
    12    7    8 1    
    13    7    9 ar   
    14    8   48 1    
    15    8   49 1    
    16    8   50 1    
    17   10   11 1    
    18   10   14 1    
    19   11   12 ar   
    20   11   26 ar   
    21   12   13 ar   
    22   12   51 1    
    23   13   29 ar   
    24   13   52 1    
    25   14   15 1    
    26   14   30 1    
    27   14   53 1    
    28   15   16 1    
    29   15   24 1    
    30   15   54 1    
    31   16   17 2    
    32   16   18 2    
    33   16   19 1    
    34   19   20 1    
    35   19   55 1    
    36   19   56 1    
    37   20   21 1    
    38   20   22 1    
    39   20   23 1    
    40   21   57 1    
    41   21   58 1    
    42   21   59 1    
    43   22   60 1    
    44   22   61 1    
    45   22   62 1    
    46   23   24 1    
    47   23   63 1    
    48   23   64 1    
    49   24   25 2    
    50   25   26 1    
    51   26   27 ar   
    52   27   28 1    
    53   27   29 ar   
    54   28   65 1    
    55   29   66 1    
    56   30   31 ar   
    57   30   36 ar   
    58   31   32 1    
    59   31   33 ar   
    60   33   34 ar   
    61   33   67 1    
    62   34   35 ar   
    63   34   37 1    
    64   35   36 ar   
    65   35   68 1    
    66   36   69 1    
    67   37   38 1    
    68   38   39 1    
    69   38   70 1    
    70   38   71 1    
    71   39   40 ar   
    72   39   44 ar   
    73   40   41 ar   
    74   40   72 1    
    75   41   42 ar   
    76   41   73 1    
    77   42   43 ar   
    78   42   74 1    
    79   43   44 ar   
    80   43   75 1    
    81   44   76 1    
@<TRIPOS>SUBSTRUCTURE
     1 LIG         1 GROUP             0       ****    0 ROOT    
