
     RDKit          3D

 20 22  0  0  0  0  0  0  0  0999 V2000
   -2.7910   10.5130   27.7800 O   0  0  0  0  0  0  0  0  0  0  0  0
   -2.4310    9.4110   27.3980 C   0  0  0  0  0  0  0  0  0  0  0  0
   -2.3870    8.2500   28.1190 N   0  0  0  0  0  0  0  0  0  0  0  0
   -1.9420    7.2070   27.3210 C   0  0  0  0  0  0  0  0  0  0  0  0
   -1.6870    7.7300   26.0600 C   0  0  0  0  0  0  0  0  0  0  0  0
   -1.2490    6.9180   25.0200 C   0  0  0  0  0  0  0  0  0  0  0  0
   -1.0800    5.5570   25.2750 C   0  0  0  0  0  0  0  0  0  0  0  0
   -1.3310    5.0310   26.5380 C   0  0  0  0  0  0  0  0  0  0  0  0
   -1.7580    5.8490   27.5780 C   0  0  0  0  0  0  0  0  0  0  0  0
   -1.9940    9.0990   26.0910 N   0  0  0  0  0  0  0  0  0  0  0  0
   -1.9230   10.0490   25.0090 C   0  0  0  0  0  0  0  0  0  0  0  0
   -0.6620   10.3540   24.5060 C   0  0  0  0  0  0  0  0  0  0  0  0
   -3.0730   10.6000   24.4380 C   0  0  0  0  0  0  0  0  0  0  0  0
   -4.3290   10.3230   24.9240 O   0  0  0  0  0  0  0  0  0  0  0  0
   -2.9370   11.4360   23.3410 C   0  0  0  0  0  0  0  0  0  0  0  0
   -1.6790   11.7240   22.8280 C   0  0  0  0  0  0  0  0  0  0  0  0
   -1.5630   12.4290   21.6740 O   0  0  0  0  0  0  0  0  0  0  0  0
   -0.5210   11.2000   23.4120 C   0  0  0  0  0  0  0  0  0  0  0  0
    0.8810   11.4380   22.8880 C   0  0  0  0  0  0  0  0  0  0  0  0
    1.6730   12.2570   23.8030 C   0  0  0  0  0  0  0  0  0  0  0  0
  2  1  2  0
  3  2  1  0
  4  3  1  0
  5  4  2  0
  6  5  1  0
  7  6  2  0
  8  7  1  0
  9  8  2  0
  9  4  1  0
 10  5  1  0
 10  2  1  0
 11 10  1  0
 12 11  2  0
 13 11  1  0
 14 13  1  0
 15 13  2  0
 16 15  1  0
 17 16  1  0
 18 12  1  0
 18 16  2  0
 19 18  1  0
 20 19  1  0
M  END
$$$$
