ZINC19973327
  SciTegic06061311253D

 64 67  0  0  1  0            999 V2000
   -1.8362    1.5257    6.1262 C   0  0
   -2.7427    1.7295    4.9107 C   0  0
   -2.0552    1.2558    3.7021 N   0  3
   -2.7889    1.6481    2.4907 C   0  0
   -2.0849    1.0693    1.2612 C   0  0
   -0.7003    1.5596    1.2166 N   0  0
    0.0335    1.1673    2.4279 C   0  0
   -0.6705    1.7461    3.6575 C   0  0
   -0.0127    1.0858    0.0080 C   0  0  2  0  0  0
    1.4011    1.6074   -0.0027 C   0  0
    2.4394    0.7425   -0.1141 C   0  0
    3.8008    1.2811   -0.1259 C   0  0
    4.9102    0.4371   -0.2436 C   0  0
    6.1801    0.9778   -0.2464 C   0  0
    6.3586    2.3547   -0.1330 C   0  0
    5.2743    3.1957   -0.0162 C   0  0
    3.9857    2.6717   -0.0116 C   0  0
    2.8862    3.4978    0.1040 N   0  0
    1.6399    2.9938    0.1091 C   0  0
    0.6922    3.7535    0.2126 O   0  0
    7.2622    0.1625   -0.3600 O   0  0
    8.5478    0.7864   -0.3562 C   0  0
    9.6339   -0.2826   -0.4920 C   0  0
   -0.7416    1.5850   -1.2129 C   0  0
   -1.1950    2.7986   -1.4120 N   0  0
   -1.7555    2.8287   -2.5716 N   0  0
   -1.6715    1.6658   -3.1175 N   0  0
   -1.0482    0.8728   -2.3130 N   0  0
   -0.7360   -0.5387   -2.5508 C   0  0
   -1.8854   -1.4086   -2.0379 C   0  0
   -1.5809   -2.7854   -2.2698 O   0  0
   -2.5956   -3.6880   -1.8250 C   0  0
   -0.9041    2.0935    5.9891 H   0  0
   -1.6009    0.4566    6.2343 H   0  0
   -2.3505    1.8803    7.0316 H   0  0
   -3.6743    1.1611    5.0485 H   0  0
   -2.9780    2.7986    4.8026 H   0  0
   -2.0273    0.2268    3.7376 H   0  0
   -3.8164    1.2588    2.5416 H   0  0
   -2.8148    2.7452    2.4152 H   0  0
   -2.6149    1.3856    0.3507 H   0  0
   -2.0829   -0.0290    1.3225 H   0  0
    1.0613    1.5559    2.3777 H   0  0
    0.0586    0.0701    2.5027 H   0  0
   -0.1385    1.4296    4.5668 H   0  0
   -0.6717    2.8444    3.5958 H   0  0
    0.0022   -0.0141    0.0020 H   0  0
    2.2627   -0.3403   -0.1939 H   0  0
    4.7714   -0.6504   -0.3333 H   0  0
    7.3754    2.7743   -0.1368 H   0  0
    5.4271    4.2813    0.0734 H   0  0
    3.0225    4.5153    0.1876 H   0  0
    8.6174    1.4883   -1.2003 H   0  0
    8.6885    1.3331    0.5879 H   0  0
    9.4954   -0.8296   -1.4362 H   0  0
    9.5656   -0.9853    0.3515 H   0  0
   10.6238    0.1970   -0.4891 H   0  0
   -0.6018   -0.7080   -3.6294 H   0  0
    0.1897   -0.8052   -2.0197 H   0  0
   -2.0199   -1.2400   -0.9593 H   0  0
   -2.8119   -1.1443   -2.5687 H   0  0
   -3.5269   -3.4234   -2.3473 H   0  0
   -2.7407   -3.5190   -0.7478 H   0  0
   -2.3206   -4.7346   -2.0227 H   0  0
  1  2  1  0
  2  3  1  0
  3  8  1  0
  3  4  1  0
  4  5  1  0
  5  6  1  0
  6  7  1  0
  6  9  1  0
  7  8  1  0
  9 10  1  0
  9 24  1  0
 10 19  1  0
 10 11  2  0
 11 12  1  0
 12 17  2  0
 12 13  1  0
 13 14  2  0
 14 15  1  0
 14 21  1  0
 15 16  2  0
 16 17  1  0
 17 18  1  0
 18 19  1  0
 19 20  2  0
 21 22  1  0
 22 23  1  0
 24 28  1  0
 24 25  2  0
 25 26  1  0
 26 27  2  0
 27 28  1  0
 28 29  1  0
 29 30  1  0
 30 31  1  0
 31 32  1  0
  1 33  1  0
  1 34  1  0
  1 35  1  0
  2 36  1  0
  2 37  1  0
  3 38  1  0
  4 39  1  0
  4 40  1  0
  5 41  1  0
  5 42  1  0
  7 43  1  0
  7 44  1  0
  8 45  1  0
  8 46  1  0
  9 47  1  0
 11 48  1  0
 13 49  1  0
 15 50  1  0
 16 51  1  0
 18 52  1  0
 22 53  1  0
 22 54  1  0
 23 55  1  0
 23 56  1  0
 23 57  1  0
 29 58  1  0
 29 59  1  0
 30 60  1  0
 30 61  1  0
 32 62  1  0
 32 63  1  0
 32 64  1  0
M  CHG  1   3   1
M  END
> <Name>
ZINC19973327

> <reference>
BDB50024710

> <quality>
0.859

> <status>
decoy

$$$$
ZINC29855032
  SciTegic06061311253D

 49 50  0  0  0  0            999 V2000
   -9.9657    1.7264   -2.9609 C   0  0
   -9.2071    3.2898   -3.4812 S   0  0
  -10.1215    4.3621   -3.2988 O   0  0
   -8.5304    3.1174   -4.7188 O   0  0
   -8.0045    3.5675   -2.3772 N   0  0
   -6.8601    2.6565   -2.2958 C   0  0
   -5.7390    3.3165   -1.4907 C   0  0
   -4.5946    2.4055   -1.4093 N   0  0
   -3.4834    2.7771   -0.7433 C   0  0
   -3.4307    3.8692   -0.2097 O   0  0
   -2.3352    1.8630   -0.6617 C   0  0
   -1.1974    2.2435    0.0202 C   0  0
   -0.1153    1.2837    0.2291 C   0  0
   -0.1910   -0.0954    0.1076 C   0  0
    1.0223   -0.5976    0.3781 N   0  0
    1.9078    0.4404    0.6798 N   0  0
    1.2726    1.5871    0.6037 C   0  0
    1.8465    2.9315    0.8485 C   0  0
    1.4132    4.0243    0.0988 C   0  0
    1.9469    5.2746    0.3344 C   0  0
    2.9190    5.4432    1.3058 C   0  0
    3.3566    4.3604    2.0495 C   0  0
    2.8257    3.1068    1.8255 C   0  0
    3.5920    7.0177    1.5919 Cl  0  0
    1.3680   -2.0212    0.3598 C   0  0
    2.5563   -2.2454   -0.5776 C   0  0
    2.9036   -3.6757   -0.5960 C   0  0
    3.1717   -4.7795   -0.6102 N   0  0
   -2.3972    0.5776   -1.2899 C   0  0
   -2.4465   -0.4421   -1.7881 N   0  0
  -10.8686    1.5437   -3.5621 H   0  0
  -10.2434    1.7939   -1.8987 H   0  0
   -9.2523    0.9016   -3.1050 H   0  0
   -8.0611    4.3808   -1.7477 H   0  0
   -7.1678    1.7245   -1.7991 H   0  0
   -6.4979    2.4295   -3.3093 H   0  0
   -5.4306    4.2484   -1.9871 H   0  0
   -6.0991    3.5432   -0.4763 H   0  0
   -4.6392    1.4809   -1.8611 H   0  0
   -1.1049    3.2693    0.4065 H   0  0
   -1.0866   -0.6741   -0.1625 H   0  0
    0.6472    3.8899   -0.6791 H   0  0
    1.5995    6.1390   -0.2505 H   0  0
    4.1289    4.4999    2.8203 H   0  0
    3.1743    2.2471    2.4166 H   0  0
    1.6366   -2.3466    1.3757 H   0  0
    0.5060   -2.6045    0.0038 H   0  0
    2.2882   -1.9206   -1.5938 H   0  0
    3.4197   -1.6637   -0.2225 H   0  0
  1  2  1  0
  2  3  2  0
  2  4  2  0
  2  5  1  0
  5  6  1  0
  6  7  1  0
  7  8  1  0
  8  9  1  0
  9 10  2  0
  9 11  1  0
 11 12  2  0
 11 29  1  0
 12 13  1  0
 13 17  1  0
 13 14  2  0
 14 15  1  0
 15 16  1  0
 15 25  1  0
 16 17  2  0
 17 18  1  0
 18 23  2  0
 18 19  1  0
 19 20  2  0
 20 21  1  0
 21 22  2  0
 21 24  1  0
 22 23  1  0
 25 26  1  0
 26 27  1  0
 27 28  3  0
 29 30  3  0
  1 31  1  0
  1 32  1  0
  1 33  1  0
  5 34  1  0
  6 35  1  0
  6 36  1  0
  7 37  1  0
  7 38  1  0
  8 39  1  0
 12 40  1  0
 14 41  1  0
 19 42  1  0
 20 43  1  0
 22 44  1  0
 23 45  1  0
 25 46  1  0
 25 47  1  0
 26 48  1  0
 26 49  1  0
M  END
> <Name>
ZINC29855032

> <reference>
BDB50024710

> <quality>
0.856

> <status>
decoy

$$$$
ZINC13692614
  SciTegic06061311253D

 58 60  0  0  1  0            999 V2000
    7.8453    5.3360   -2.7729 C   0  0
    7.9552    3.8099   -2.7629 C   0  0
    6.6246    3.2289   -2.7512 O   0  0
    6.5445    1.8826   -2.7413 C   0  0
    7.5596    1.2130   -2.7424 O   0  0
    5.2332    1.2262   -2.7292 C   0  0
    5.0139   -0.1203   -2.7185 C   0  0
    3.6141   -0.3111   -2.7097 C   0  0
    3.0328    0.9449   -2.7216 C   0  0
    4.0110    1.8641   -2.7272 N   0  0
    1.5533    1.2317   -2.7240 C   0  0
    2.9060   -1.6043   -2.6968 C   0  0
    2.4983   -2.0853   -3.7379 O   0  0
    2.6930   -2.3113   -1.4291 C   0  0
    1.9908   -3.4549   -1.2489 C   0  0
    2.0248   -3.8262    0.1812 C   0  0
    1.4873   -4.8047    0.6605 O   0  0
    2.7395   -2.9207    0.8737 N   0  0
    3.2140   -1.9028   -0.0710 C   0  0  2  0  0  0
    2.6686   -0.5499    0.3077 C   0  0
    3.3239    0.6300    0.4331 C   0  0
    2.6111    1.7573    0.7960 C   0  0
    1.2779    1.6496    1.0157 C   0  0
    0.9920   -0.0856    0.7083 S   0  0
    2.9975   -2.9460    2.3156 C   0  0
    1.8891   -2.1847    3.0455 C   0  0
    3.3650   -1.4568    4.8216 C   0  0
    0.9928   -1.6994    5.2418 C   0  0
    1.3581   -4.1479   -2.2239 O   0  5
    6.0656   -1.1996   -2.7170 C   0  0
    2.1520   -2.2373    4.4990 N   0  3
    7.3072    5.6718   -1.8742 H   0  0
    7.2969    5.6593   -3.6700 H   0  0
    8.8531    5.7768   -2.7818 H   0  0
    8.4931    3.4750   -3.6621 H   0  0
    8.5036    3.4865   -1.8658 H   0  0
    3.8707    2.8845   -2.7296 H   0  0
    1.2004    0.6786   -1.8411 H   0  0
    1.2000    0.6617   -3.5959 H   0  0
    1.2606    2.2920   -2.7341 H   0  0
    4.3117   -1.8322   -0.0669 H   0  0
    4.4067    0.6895    0.2488 H   0  0
    3.1182    2.7273    0.9049 H   0  0
    0.5587    2.4291    1.3076 H   0  0
    3.9669   -2.4699    2.5242 H   0  0
    3.0179   -3.9884    2.6664 H   0  0
    0.9168   -2.6521    2.8306 H   0  0
    1.8801   -1.1368    2.7110 H   0  0
    3.2171   -0.4112    4.5136 H   0  0
    4.2237   -1.8783    4.2784 H   0  0
    3.5568   -1.4987    5.9039 H   0  0
    0.1012   -2.3000    5.0088 H   0  0
    0.8187   -0.6565    4.9384 H   0  0
    1.1927   -1.7404    6.3227 H   0  0
    6.6797   -0.9291   -1.8454 H   0  0
    6.6696   -0.9414   -3.5993 H   0  0
    5.7046   -2.2386   -2.7076 H   0  0
    2.3015   -3.2178    4.7766 H   0  0
  1  2  1  0
  2  3  1  0
  3  4  1  0
  4  5  2  0
  4  6  1  0
  6 10  1  0
  6  7  2  0
  7  8  1  0
  7 30  1  0
  8  9  2  0
  8 12  1  0
  9 10  1  0
  9 11  1  0
 12 13  2  0
 12 14  1  0
 14 19  1  0
 14 15  2  0
 15 16  1  0
 15 29  1  0
 16 17  2  0
 16 18  1  0
 18 19  1  0
 18 25  1  0
 19 20  1  0
 20 24  1  0
 20 21  2  0
 21 22  1  0
 22 23  2  0
 23 24  1  0
 25 26  1  0
 26 31  1  0
 27 31  1  0
 28 31  1  0
  1 32  1  0
  1 33  1  0
  1 34  1  0
  2 35  1  0
  2 36  1  0
 10 37  1  0
 11 38  1  0
 11 39  1  0
 11 40  1  0
 19 41  1  0
 21 42  1  0
 22 43  1  0
 23 44  1  0
 25 45  1  0
 25 46  1  0
 26 47  1  0
 26 48  1  0
 27 49  1  0
 27 50  1  0
 27 51  1  0
 28 52  1  0
 28 53  1  0
 28 54  1  0
 30 55  1  0
 30 56  1  0
 30 57  1  0
 31 58  1  0
M  CHG  2  29  -1  31   1
M  END
> <Name>
ZINC13692614

> <reference>
BDB50024710

> <quality>
0.856

> <status>
decoy

$$$$
ZINC28152711
  SciTegic06061311253D

 71 72  0  0  1  0            999 V2000
    3.1154   12.5592   -5.5063 C   0  0
    2.9310   11.1927   -4.8434 C   0  0
    3.5186   11.2175   -3.5017 N   0  0
    4.9487   10.9544   -3.3232 C   0  0
    5.1884    9.4438   -3.2850 C   0  0
    2.5662   11.5430   -2.1866 S   0  0
    1.5381   12.4152   -2.6356 O   0  0
    3.4449   11.8849   -1.1235 O   0  0
    1.8284   10.1252   -1.7534 N   0  0
    2.4914    9.1754   -0.8470 C   0  0
    2.4662    7.7865   -1.4940 C   0  0
    1.0839    7.4417   -1.8521 N   0  0
    0.5464    8.3693   -2.8564 C   0  0
    0.4929    9.7820   -2.2653 C   0  0
    0.9918    6.0512   -2.3170 C   0  0
   -0.4577    5.6576   -2.4399 C   0  0
   -1.3283    6.4568   -2.1671 O   0  0
   -0.7866    4.4176   -2.8530 N   0  0
   -2.1957    4.0350   -2.9725 C   0  0
   -2.2921    2.5576   -3.3583 C   0  0  2  0  0  0
   -1.7027    2.3559   -4.7558 C   0  0
   -3.7595    2.1247   -3.3564 C   0  0
   -1.5415    1.7484   -2.3889 N   0  0
   -1.5841    0.3232   -2.7472 C   0  0
   -0.7424   -0.4742   -1.7474 C   0  0  1  0  0  0
   -1.2286   -0.2338   -0.4241 O   0  0
   -1.2007    1.1440   -0.0419 C   0  0  2  0  0  0
   -2.0471    1.9578   -1.0244 C   0  0
    0.2422    1.6523   -0.0677 C   0  0
   -0.8474   -1.9667   -2.0670 C   0  0
    4.1883   12.7899   -5.5809 H   0  0
    2.6161   13.3312   -4.9024 H   0  0
    2.6744   12.5412   -6.5139 H   0  0
    1.8578   10.9630   -4.7689 H   0  0
    3.4302   10.4206   -5.4473 H   0  0
    5.5098   11.3931   -4.1615 H   0  0
    5.2901   11.4031   -2.3787 H   0  0
    4.8486    8.9936   -4.2293 H   0  0
    4.6279    9.0036   -2.4471 H   0  0
    6.2620    9.2455   -3.1510 H   0  0
    3.5337    9.4868   -0.6838 H   0  0
    1.9554    9.1440    0.1131 H   0  0
    2.8571    7.0426   -0.7842 H   0  0
    3.0891    7.7925   -2.4006 H   0  0
   -0.4675    8.0539   -3.1436 H   0  0
    1.1971    8.3676   -3.7433 H   0  0
    0.2011   10.4977   -3.0480 H   0  0
   -0.2364    9.8095   -1.4423 H   0  0
    1.4910    5.3882   -1.5951 H   0  0
    1.4806    5.9593   -3.2981 H   0  0
   -0.0473    3.7389   -3.0847 H   0  0
   -2.7024    4.1957   -2.0095 H   0  0
   -2.6787    4.6479   -3.7478 H   0  0
   -0.6475    2.6666   -4.7582 H   0  0
   -2.2642    2.9613   -5.4826 H   0  0
   -1.7717    1.2939   -5.0338 H   0  0
   -4.3224    2.7299   -4.0823 H   0  0
   -4.1842    2.2691   -2.3520 H   0  0
   -3.8295    1.0625   -3.6337 H   0  0
   -1.1777    0.1857   -3.7601 H   0  0
   -2.6246   -0.0325   -2.7163 H   0  0
    0.3094   -0.1597   -1.8169 H   0  0
   -1.6075    1.2534    0.9742 H   0  0
   -1.9813    3.0255   -0.7680 H   0  0
   -3.0950    1.6286   -0.9653 H   0  0
    0.6511    1.5459   -1.0833 H   0  0
    0.8512    1.0651    0.6353 H   0  0
    0.2639    2.7121    0.2262 H   0  0
   -0.4771   -2.1511   -3.0862 H   0  0
   -1.8981   -2.2845   -1.9963 H   0  0
   -0.2427   -2.5399   -1.3488 H   0  0
  1  2  1  0
  2  3  1  0
  3  4  1  0
  3  6  1  0
  4  5  1  0
  6  7  2  0
  6  8  2  0
  6  9  1  0
  9 14  1  0
  9 10  1  0
 10 11  1  0
 11 12  1  0
 12 13  1  0
 12 15  1  0
 13 14  1  0
 15 16  1  0
 16 17  2  0
 16 18  1  0
 18 19  1  0
 19 20  1  0
 20 21  1  0
 20 22  1  0
 20 23  1  0
 23 28  1  0
 23 24  1  0
 24 25  1  0
 25 26  1  0
 25 30  1  0
 26 27  1  0
 27 28  1  0
 27 29  1  0
  1 31  1  0
  1 32  1  0
  1 33  1  0
  2 34  1  0
  2 35  1  0
  4 36  1  0
  4 37  1  0
  5 38  1  0
  5 39  1  0
  5 40  1  0
 10 41  1  0
 10 42  1  0
 11 43  1  0
 11 44  1  0
 13 45  1  0
 13 46  1  0
 14 47  1  0
 14 48  1  0
 15 49  1  0
 15 50  1  0
 18 51  1  0
 19 52  1  0
 19 53  1  0
 21 54  1  0
 21 55  1  0
 21 56  1  0
 22 57  1  0
 22 58  1  0
 22 59  1  0
 24 60  1  0
 24 61  1  0
 25 62  1  0
 27 63  1  0
 28 64  1  0
 28 65  1  0
 29 66  1  0
 29 67  1  0
 29 68  1  0
 30 69  1  0
 30 70  1  0
 30 71  1  0
M  END
> <Name>
ZINC28152711

> <reference>
BDB50024710

> <quality>
0.777

> <status>
decoy

$$$$
ZINC28820271
  SciTegic06061311253D

 48 50  0  0  1  0            999 V2000
  -13.4923    3.1087   -2.1287 C   0  0
  -12.4539    2.2266   -2.8248 C   0  0
  -11.1218    2.8114   -2.6520 N   0  0
  -10.6087    3.7682   -3.6355 C   0  0
   -9.8554    3.0157   -4.7342 C   0  0
  -10.3594    2.4649   -1.5755 C   0  0
  -10.6698    1.6230   -0.6029 N   0  0
   -9.8842    1.3387    0.4022 C   0  0
  -10.1932    0.5609    1.2838 O   0  0
   -8.5466    2.0684    0.3712 C   0  5
   -8.7668    3.0310   -1.1779 S   0  0
   -7.3777    1.0877    0.2582 C   0  0
   -6.0865    1.8563    0.1432 C   0  0
   -6.0999    3.0691    0.1509 O   0  0
   -4.9168    1.1960    0.0319 N   0  0
   -3.7100    1.9047    0.0363 C   0  0
   -2.6344    1.4502   -0.7176 C   0  0
   -1.4403    2.1462   -0.7163 C   0  0
   -1.3097    3.3002    0.0295 C   0  0
   -2.3822    3.7621    0.7941 C   0  0
   -3.5873    3.0596    0.7927 C   0  0
   -2.2434    4.9953    1.5980 C   0  0
   -3.1803    5.3984    2.2591 O   0  0
   -1.0762    5.6693    1.6020 N   0  5
   -0.9429    6.8345    2.3683 N   0  0
   -1.8963    7.4186    3.1557 C   0  0
   -1.3604    8.4783    3.6922 N   0  0
   -0.1453    8.6078    3.2942 N   0  0
    0.1641    7.6260    2.4793 C   0  0
    1.7148    7.3765    1.6808 S   0  5
  -13.4747    4.1159   -2.5705 H   0  0
  -13.2583    3.1754   -1.0560 H   0  0
  -14.4928    2.6702   -2.2581 H   0  0
  -12.4720    1.2198   -2.3821 H   0  0
  -12.6879    2.1598   -3.8976 H   0  0
  -11.4482    4.3223   -4.0807 H   0  0
   -9.9251    4.4736   -3.1404 H   0  0
  -10.5379    2.3105   -5.2312 H   0  0
   -9.0155    2.4611   -4.2905 H   0  0
   -9.4698    3.7336   -5.4731 H   0  0
   -7.5101    0.4590   -0.6347 H   0  0
   -7.3458    0.4502    1.1541 H   0  0
   -4.9111    0.1698   -0.0564 H   0  0
   -2.7338    0.5334   -1.3173 H   0  0
   -0.5912    1.7792   -1.3116 H   0  0
   -0.3604    3.8559    0.0213 H   0  0
   -4.4374    3.4210    1.3899 H   0  0
   -2.9251    7.0602    3.3080 H   0  0
  1  2  1  0
  2  3  1  0
  3  4  1  0
  3  6  1  0
  4  5  1  0
  6 11  1  0
  6  7  2  0
  7  8  1  0
  8  9  2  0
  8 10  1  0
 10 11  1  0
 10 12  1  0
 12 13  1  0
 13 14  2  0
 13 15  1  0
 15 16  1  0
 16 21  2  0
 16 17  1  0
 17 18  2  0
 18 19  1  0
 19 20  2  0
 20 21  1  0
 20 22  1  0
 22 23  2  0
 22 24  1  0
 24 25  1  0
 25 29  1  0
 25 26  1  0
 26 27  2  0
 27 28  1  0
 28 29  2  0
 29 30  1  0
  1 31  1  0
  1 32  1  0
  1 33  1  0
  2 34  1  0
  2 35  1  0
  4 36  1  0
  4 37  1  0
  5 38  1  0
  5 39  1  0
  5 40  1  0
 12 41  1  0
 12 42  1  0
 15 43  1  0
 17 44  1  0
 18 45  1  0
 19 46  1  0
 21 47  1  0
 26 48  1  0
M  CHG  3  10  -1  24  -1  30  -1
M  END
> <Name>
ZINC28820271

> <reference>
BDB50024710

> <quality>
0.770

> <status>
decoy

$$$$
ZINC08822197
  SciTegic06061311253D

 37 38  0  0  0  0            999 V2000
  -16.7549   -5.1421    0.0451 C   0  0
  -15.2386   -4.9382    0.0394 C   0  0
  -14.9413   -3.5170    0.0459 O   0  0
  -13.6459   -3.1653    0.0420 C   0  0
  -12.7888   -4.0169    0.0334 O   0  0
  -13.2606   -1.7085    0.0483 C   0  0
  -11.8004   -1.5895    0.0423 N   0  0
  -11.2235   -0.3714    0.0465 C   0  0
  -11.9132    0.6262    0.0552 O   0  0
   -9.7215   -0.2491    0.0403 C   0  0
   -9.2577    1.5046    0.0480 S   0  0
   -7.4959    1.4796    0.0398 C   0  0
   -6.6738    0.4467    0.0308 N   0  0
   -5.3140    0.6551    0.0264 N   0  0
   -4.8383    1.8847    0.0312 C   0  0
   -6.3443    2.8451    0.0499 S   0  0
   -3.5161    2.3184    0.0286 N   0  5
   -2.5120    1.4195    0.0196 C   0  0
   -2.7617    0.2281    0.0137 O   0  0
   -1.1199    1.8761    0.0168 C   0  0
   -0.0126    1.0758    0.0080 C   0  0
    1.1016    1.9281    0.0019 C   0  0
    0.6323    3.1972    0.0132 C   0  0
   -0.7068    3.1610    0.0258 O   0  0
    1.6919    4.7634    0.0125 Br  0  0
  -17.1924   -4.6726   -0.8483 H   0  0
  -17.1843   -4.6825    0.9475 H   0  0
  -16.9808   -6.2186    0.0402 H   0  0
  -14.8020   -5.4077    0.9333 H   0  0
  -14.8091   -5.3978   -0.8630 H   0  0
  -13.6717   -1.2165   -0.8455 H   0  0
  -13.6634   -1.2254    0.9507 H   0  0
  -11.2147   -2.4367    0.0349 H   0  0
   -9.3097   -0.7406    0.9341 H   0  0
   -9.3170   -0.7305   -0.8622 H   0  0
    0.0023   -0.0241    0.0061 H   0  0
    2.1582    1.6222   -0.0099 H   0  0
  1  2  1  0
  2  3  1  0
  3  4  1  0
  4  5  2  0
  4  6  1  0
  6  7  1  0
  7  8  1  0
  8  9  2  0
  8 10  1  0
 10 11  1  0
 11 12  1  0
 12 16  1  0
 12 13  2  0
 13 14  1  0
 14 15  2  0
 15 16  1  0
 15 17  1  0
 17 18  1  0
 18 19  2  0
 18 20  1  0
 20 24  1  0
 20 21  2  0
 21 22  1  0
 22 23  2  0
 23 24  1  0
 23 25  1  0
  1 26  1  0
  1 27  1  0
  1 28  1  0
  2 29  1  0
  2 30  1  0
  6 31  1  0
  6 32  1  0
  7 33  1  0
 10 34  1  0
 10 35  1  0
 21 36  1  0
 22 37  1  0
M  CHG  1  17  -1
M  END
> <Name>
ZINC08822197

> <reference>
BDB50024710

> <quality>
0.760

> <status>
decoy

$$$$
ZINC22718680
  SciTegic06061311253D

 51 53  0  0  1  0            999 V2000
    1.7009   -1.9124   -0.0249 C   0  0
    1.2900   -0.4626   -0.0127 C   0  0
    2.1308    0.5852   -0.0151 C   0  0
    1.2915    1.7911   -0.0007 C   0  0
   -0.0162    1.3429    0.0094 C   0  0
    0.0021   -0.0041    0.0020 N   0  0
   -1.1376   -0.8198    0.0081 C   0  0
   -1.9858   -0.8218    1.1073 C   0  0
   -3.1112   -1.6224    1.1080 C   0  0
   -3.3876   -2.4300    0.0200 C   0  0
   -2.5417   -2.4344   -1.0738 C   0  0
   -1.4178   -1.6317   -1.0828 C   0  0
   -4.6128   -3.3074    0.0268 C   0  0  1  0  0  0
   -4.2909   -4.5537    0.5749 F   0  0
   -5.6140   -2.7044    0.7956 F   0  0
   -5.0709   -3.4787   -1.2840 F   0  0
   -1.2483    2.2105    0.0202 C   0  0
    1.7469    3.1827    0.0020 C   0  0
    0.9369    4.0862    0.0142 O   0  0
    3.2216    3.4929   -0.0103 C   0  0
    3.4135    4.9322   -0.0049 O   0  0
    4.6795    5.3782   -0.0146 C   0  0
    5.5969    4.5920   -0.0272 O   0  0
    4.9565    6.8595   -0.0097 C   0  0
    6.4681    7.0957   -0.0228 C   0  0
    6.7494    8.5996   -0.0179 C   0  0  2  0  0  0
    8.2397    8.8637   -0.1017 C   0  0
    8.9896    8.5495   -1.0010 O   0  0
    8.5575    9.5210    1.0310 N   0  0
    7.4863    9.7070    1.8108 C   0  0
    7.5226   10.2755    2.8844 O   0  0
    6.3607    9.1953    1.2721 N   0  5
    1.1670   -2.3099   -0.9006 H   0  0
    1.1834   -2.3200    0.8560 H   0  0
    2.7831   -2.1092   -0.0362 H   0  0
    3.2301    0.5477   -0.0257 H   0  0
   -1.7617   -0.1864    1.9768 H   0  0
   -3.7883   -1.6176    1.9749 H   0  0
   -2.7641   -3.0779   -1.9377 H   0  0
   -0.7454   -1.6356   -1.9533 H   0  0
   -1.0943    2.8551   -0.8577 H   0  0
   -1.0802    2.8533    0.8968 H   0  0
   -2.2159    1.6873    0.0275 H   0  0
    3.6956    3.0570    0.8815 H   0  0
    3.6797    3.0660   -0.9147 H   0  0
    4.5063    7.3198   -0.9015 H   0  0
    4.5233    7.3117    0.8947 H   0  0
    6.9029    6.6451   -0.9271 H   0  0
    6.9189    6.6360    0.8691 H   0  0
    6.1924    9.0202   -0.8681 H   0  0
    9.5077    9.8407    1.2673 H   0  0
  1  2  1  0
  2  6  1  0
  2  3  2  0
  3  4  1  0
  4  5  2  0
  4 18  1  0
  5  6  1  0
  5 17  1  0
  6  7  1  0
  7 12  2  0
  7  8  1  0
  8  9  2  0
  9 10  1  0
 10 11  2  0
 10 13  1  0
 11 12  1  0
 13 14  1  0
 13 15  1  0
 13 16  1  0
 18 19  2  0
 18 20  1  0
 20 21  1  0
 21 22  1  0
 22 23  2  0
 22 24  1  0
 24 25  1  0
 25 26  1  0
 26 32  1  0
 26 27  1  0
 27 28  2  0
 27 29  1  0
 29 30  1  0
 30 31  2  0
 30 32  1  0
  1 33  1  0
  1 34  1  0
  1 35  1  0
  3 36  1  0
  8 37  1  0
  9 38  1  0
 11 39  1  0
 12 40  1  0
 17 41  1  0
 17 42  1  0
 17 43  1  0
 20 44  1  0
 20 45  1  0
 24 46  1  0
 24 47  1  0
 25 48  1  0
 25 49  1  0
 26 50  1  0
 29 51  1  0
M  CHG  1  32  -1
M  END
> <Name>
ZINC22718680

> <reference>
BDB50024710

> <quality>
0.760

> <status>
decoy

$$$$
ZINC20848134
  SciTegic06061311253D

 60 62  0  0  0  0            999 V2000
   -6.2369   -3.0254   -1.5878 C   0  0
   -5.7628   -1.6873   -2.1584 C   0  0
   -4.3716   -1.7975   -2.5590 O   0  0
   -3.7998   -0.7022   -3.0836 C   0  0
   -4.4407    0.3150   -3.2040 O   0  0
   -2.3586   -0.7413   -3.5223 C   0  0  1  0  0  0
   -2.1873   -1.7890   -4.5919 C   0  0
   -1.7859   -1.4743   -5.6871 O   0  0
   -2.4807   -3.0720   -4.3277 O   0  0
   -2.2917   -4.0268   -5.4052 C   0  0
   -2.6749   -5.4262   -4.9196 C   0  0
   -1.9749    0.5682   -4.0556 N   0  0
   -0.9976    1.3690   -3.5878 C   0  0
   -0.9333    2.4566   -4.3128 N   0  0
   -1.8608    2.4161   -5.2727 C   0  0
   -2.5480    1.2170   -5.1309 C   0  0
   -3.5952    0.9143   -6.0277 C   0  0
   -4.2127   -0.1303   -5.9237 O   0  0
   -3.9043    1.7959   -7.0013 N   0  0
   -3.2313    2.9527   -7.1267 C   0  0
   -3.5377    3.7231   -8.0163 O   0  0
   -2.2263    3.2797   -6.2927 N   0  0
   -1.5181    4.5506   -6.4637 C   0  0
   -0.1087    1.0567   -2.4117 C   0  0
   -0.7243    1.5730   -1.1819 N   0  0
   -0.0127    1.0858    0.0080 C   0  0
   -0.7300    1.5798    1.2666 C   0  0
   -0.7832    3.0484    1.2523 N   0  3
   -1.4948    3.5356    0.0624 C   0  0
   -0.7771    3.0416   -1.1959 C   0  0
   -1.3988    3.5648    2.4821 C   0  0
   -5.6241   -3.2900   -0.7134 H   0  0
   -6.1377   -3.8079   -2.3546 H   0  0
   -7.2909   -2.9425   -1.2841 H   0  0
   -6.3758   -1.4236   -3.0329 H   0  0
   -5.8619   -0.9048   -1.3917 H   0  0
   -1.7198   -0.9883   -2.6615 H   0  0
   -2.9281   -3.7482   -6.2580 H   0  0
   -1.2372   -4.0241   -5.7182 H   0  0
   -3.7296   -5.4310   -4.6072 H   0  0
   -2.0392   -5.7063   -4.0667 H   0  0
   -2.5320   -6.1501   -5.7354 H   0  0
   -4.6674    1.5792   -7.6583 H   0  0
   -0.4596    4.2743   -6.5791 H   0  0
   -1.6158    5.0643   -5.4959 H   0  0
   -1.8873    5.1596   -7.3020 H   0  0
    0.0193   -0.0326   -2.3277 H   0  0
    0.8731    1.5312   -2.5565 H   0  0
    0.0016   -0.0141    0.0024 H   0  0
    1.0192    1.4667    0.0014 H   0  0
   -0.1825    1.2418    2.1588 H   0  0
   -1.7531    1.1763    1.2883 H   0  0
    0.1837    3.4010    1.2108 H   0  0
   -1.5100    4.6355    0.0673 H   0  0
   -2.5264    3.1537    0.0696 H   0  0
   -1.3248    3.3818   -2.0872 H   0  0
    0.2458    3.4455   -1.2166 H   0  0
   -0.8062    3.2272    3.3451 H   0  0
   -2.4187    3.1612    2.5657 H   0  0
   -1.4319    4.6640    2.4575 H   0  0
  1  2  1  0
  2  3  1  0
  3  4  1  0
  4  5  2  0
  4  6  1  0
  6  7  1  0
  6 12  1  0
  7  8  2  0
  7  9  1  0
  9 10  1  0
 10 11  1  0
 12 16  1  0
 12 13  1  0
 13 14  2  0
 13 24  1  0
 14 15  1  0
 15 22  1  0
 15 16  2  0
 16 17  1  0
 17 18  2  0
 17 19  1  0
 19 20  1  0
 20 21  2  0
 20 22  1  0
 22 23  1  0
 24 25  1  0
 25 30  1  0
 25 26  1  0
 26 27  1  0
 27 28  1  0
 28 29  1  0
 28 31  1  0
 29 30  1  0
  1 32  1  0
  1 33  1  0
  1 34  1  0
  2 35  1  0
  2 36  1  0
  6 37  1  0
 10 38  1  0
 10 39  1  0
 11 40  1  0
 11 41  1  0
 11 42  1  0
 19 43  1  0
 23 44  1  0
 23 45  1  0
 23 46  1  0
 24 47  1  0
 24 48  1  0
 26 49  1  0
 26 50  1  0
 27 51  1  0
 27 52  1  0
 28 53  1  0
 29 54  1  0
 29 55  1  0
 30 56  1  0
 30 57  1  0
 31 58  1  0
 31 59  1  0
 31 60  1  0
M  CHG  1  28   1
M  END
> <Name>
ZINC20848134

> <reference>
BDB50024710

> <quality>
0.755

> <status>
decoy

$$$$
ZINC22792143
  SciTegic06061311253D

 56 58  0  0  0  0            999 V2000
   -1.6746    2.9949    5.8623 C   0  0
   -2.2634    1.8377    5.3880 C   0  0
   -1.7419    1.2022    4.2767 C   0  0
   -0.6313    1.7237    3.6399 C   0  0
   -0.0390    2.8778    4.1176 C   0  0
   -0.5637    3.5162    5.2258 C   0  0
   -0.0625    1.0307    2.4286 C   0  0
   -0.7014    1.5602    1.2164 N   0  3
   -0.0127    1.0858    0.0080 C   0  0
   -0.7538    1.5933   -1.2312 C   0  0
   -0.8062    3.0616   -1.2005 N   0  0
   -1.4953    3.5359    0.0077 C   0  0
   -0.7542    3.0285    1.2469 C   0  0
   -1.4446    3.5911   -2.4129 C   0  0
   -1.7068    5.0884   -2.2388 C   0  0
   -2.3618    5.6316   -3.4826 C   0  0
   -2.5958    4.8938   -4.4163 O   0  0
   -2.6874    6.9373   -3.5574 N   0  0
   -3.2963    7.4423   -4.7137 N   0  5
   -4.7368    8.2519   -4.6048 S   0  0
   -5.0177    8.7574   -5.9028 O   0  0
   -5.6328    7.3950   -3.9105 O   0  0
   -4.4711    9.6504   -3.5664 C   0  0
   -4.6687    9.5438   -2.2008 C   0  0
   -4.4569   10.6354   -1.3776 C   0  0
   -4.0577   11.8416   -1.9151 C   0  0
   -3.8621   11.9577   -3.2925 C   0  0
   -4.0722   10.8504   -4.1170 C   0  0
   -3.4352   13.2463   -3.8753 C   0  0
   -3.2661   13.3444   -5.0742 O   0  0
   -3.2334   14.3126   -3.0772 O   0  5
   -2.0900    3.5010    6.7462 H   0  0
   -3.1470    1.4225    5.8949 H   0  0
   -2.2107    0.2815    3.8991 H   0  0
    0.8498    3.2881    3.6159 H   0  0
   -0.0973    4.4390    5.6011 H   0  0
   -0.2528   -0.0503    2.5001 H   0  0
    1.0217    1.2096    2.3790 H   0  0
   -1.6689    1.2080    1.1900 H   0  0
    0.0023   -0.0141    0.0008 H   0  0
    1.0190    1.4674   -0.0003 H   0  0
   -0.2229    1.2645   -2.1367 H   0  0
   -1.7773    1.1904   -1.2386 H   0  0
   -1.5097    4.6358    0.0142 H   0  0
   -2.5271    3.1548    0.0165 H   0  0
   -1.2855    3.3580    2.1520 H   0  0
    0.2685    3.4335    1.2533 H   0  0
   -0.7807    3.4336   -3.2757 H   0  0
   -2.3982    3.0701   -2.5840 H   0  0
   -0.7541    5.6113   -2.0688 H   0  0
   -2.3710    5.2466   -1.3763 H   0  0
   -2.4886    7.5639   -2.7645 H   0  0
   -4.9956    8.5869   -1.7679 H   0  0
   -4.6072   10.5413   -0.2920 H   0  0
   -3.8939   12.7099   -1.2599 H   0  0
   -3.9199   10.9350   -5.2031 H   0  0
  1  6  2  0
  1  2  1  0
  2  3  2  0
  3  4  1  0
  4  5  2  0
  4  7  1  0
  5  6  1  0
  7  8  1  0
  8 13  1  0
  8  9  1  0
  9 10  1  0
 10 11  1  0
 11 12  1  0
 11 14  1  0
 12 13  1  0
 14 15  1  0
 15 16  1  0
 16 17  2  0
 16 18  1  0
 18 19  1  0
 19 20  1  0
 20 21  2  0
 20 22  2  0
 20 23  1  0
 23 28  2  0
 23 24  1  0
 24 25  2  0
 25 26  1  0
 26 27  2  0
 27 28  1  0
 27 29  1  0
 29 30  2  0
 29 31  1  0
  1 32  1  0
  2 33  1  0
  3 34  1  0
  5 35  1  0
  6 36  1  0
  7 37  1  0
  7 38  1  0
  8 39  1  0
  9 40  1  0
  9 41  1  0
 10 42  1  0
 10 43  1  0
 12 44  1  0
 12 45  1  0
 13 46  1  0
 13 47  1  0
 14 48  1  0
 14 49  1  0
 15 50  1  0
 15 51  1  0
 18 52  1  0
 24 53  1  0
 25 54  1  0
 26 55  1  0
 28 56  1  0
M  CHG  3   8   1  19  -1  31  -1
M  END
> <Name>
ZINC22792143

> <reference>
BDB50024710

> <quality>
0.753

> <status>
decoy

$$$$
ZINC31666991
  SciTegic06061311253D

 54 55  0  0  1  0            999 V2000
   -5.3371    1.1269   -1.7089 C   0  0
   -3.9446    0.7648   -2.2292 C   0  0
   -2.8965    1.6290   -1.5253 C   0  0
   -1.5040    1.2669   -2.0456 C   0  0
   -0.5004    2.0945   -1.3716 N   0  0
   -0.1901    3.4317   -1.8833 C   0  0
    0.2833    1.5184   -0.0314 S   0  0
    0.2232    0.1005   -0.1039 O   0  0
    1.5129    2.2253    0.0553 O   0  0
   -0.6698    1.9916    1.3730 C   0  0
   -0.4187    3.1967    2.0029 C   0  0
   -1.1676    3.5733    3.1005 C   0  0
   -2.1666    2.7347    3.5785 C   0  0
   -2.4124    1.5222    2.9467 C   0  0
   -1.6636    1.1544    1.8462 C   0  0
   -2.9218    3.1096    4.6920 N   0  5
   -2.1692    3.7153    6.0370 S   0  0
   -1.3315    4.7733    5.5919 O   0  0
   -3.1803    3.9052    7.0173 O   0  0
   -1.1036    2.4533    6.6506 C   0  0
    0.2592    2.3173    6.3682 C   0  0
    0.7047    1.2040    7.0486 C   0  0
   -0.3691    0.6770    7.7297 N   0  0
   -1.4577    1.4462    7.4842 C   0  0
   -0.3389   -0.5135    8.5830 C   0  0
    2.0736    0.6772    7.0470 C   0  0
    2.3667   -0.2574    7.7692 O   0  0
    3.0068    1.2282    6.2458 N   0  0
    4.3435    0.6345    6.1621 C   0  0
   -5.5413    2.1884   -1.9128 H   0  0
   -5.3828    0.9470   -0.6247 H   0  0
   -6.0912    0.5059   -2.2146 H   0  0
   -3.7412   -0.2967   -2.0247 H   0  0
   -3.8989    0.9446   -3.3134 H   0  0
   -3.0991    2.6907   -1.7298 H   0  0
   -2.9400    1.4496   -0.4409 H   0  0
   -1.3006    0.2054   -1.8410 H   0  0
   -1.4583    1.4467   -3.1298 H   0  0
   -1.1556    3.9586   -1.8988 H   0  0
    0.1044    3.2713   -2.9309 H   0  0
    0.5761    3.9710   -1.3071 H   0  0
    0.3785    3.8562    1.6293 H   0  0
   -0.9733    4.5362    3.5956 H   0  0
   -3.2027    0.8557    3.3226 H   0  0
   -1.8579    0.1944    1.3454 H   0  0
    0.8621    2.9747    5.7245 H   0  0
   -2.4645    1.2797    7.8949 H   0  0
    0.4624   -0.2762    9.2982 H   0  0
    0.0755   -1.2799    7.9115 H   0  0
   -1.2884   -0.8027    9.0572 H   0  0
    2.7802    2.0668    5.6923 H   0  0
    4.1749   -0.4098    5.8603 H   0  0
    4.7155    0.6188    7.1972 H   0  0
    5.0244    1.1640    5.4794 H   0  0
  1  2  1  0
  2  3  1  0
  3  4  1  0
  4  5  1  0
  5  6  1  0
  5  7  1  0
  7  8  2  0
  7  9  2  0
  7 10  1  0
 10 15  2  0
 10 11  1  0
 11 12  2  0
 12 13  1  0
 13 14  2  0
 13 16  1  0
 14 15  1  0
 16 17  1  0
 17 18  2  0
 17 19  2  0
 17 20  1  0
 20 24  2  0
 20 21  1  0
 21 22  2  0
 22 23  1  0
 22 26  1  0
 23 24  1  0
 23 25  1  0
 26 27  2  0
 26 28  1  0
 28 29  1  0
  1 30  1  0
  1 31  1  0
  1 32  1  0
  2 33  1  0
  2 34  1  0
  3 35  1  0
  3 36  1  0
  4 37  1  0
  4 38  1  0
  6 39  1  0
  6 40  1  0
  6 41  1  0
 11 42  1  0
 12 43  1  0
 14 44  1  0
 15 45  1  0
 21 46  1  0
 24 47  1  0
 25 48  1  0
 25 49  1  0
 25 50  1  0
 28 51  1  0
 29 52  1  0
 29 53  1  0
 29 54  1  0
M  CHG  1  16  -1
M  END
> <Name>
ZINC31666991

> <reference>
BDB50024710

> <quality>
0.750

> <status>
decoy

$$$$
ZINC04046948
  SciTegic06061311253D

 50 52  0  0  0  0            999 V2000
    8.6855    9.3099   -0.0535 C   0  0
    8.0449    8.3421   -1.0148 C   0  0
    8.3152    8.4189   -2.3728 C   0  0
    7.7036    7.5075   -3.2197 C   0  0
    6.8548    6.5563   -2.6857 C   0  0
    6.6172    6.5161   -1.3893 N   0  3
    7.1813    7.3668   -0.5542 C   0  0
    5.7075    5.4959   -0.8622 C   0  0
    4.2792    6.0443   -0.8483 C   0  0
    3.3695    5.0241   -0.3211 N   0  0
    2.0120    5.2938   -0.2127 C   0  0
    1.5120    6.5302   -0.6032 C   0  0
    0.1626    6.7956   -0.4949 C   0  0
   -0.7043    5.8350    0.0026 C   0  0
   -0.2281    4.6035    0.3943 C   0  0
    1.1374    4.3204    0.2961 C   0  0
    1.6544    3.0075    0.7184 C   0  0
    1.6394    2.0709   -0.0557 O   0  0
   -1.3376    3.3889    1.0255 S   0  0
   -2.6384    3.9578    0.9676 O   0  0
   -0.7689    2.9095    2.2363 O   0  0
   -1.3289    2.1186   -0.0370 N   0  0
   -1.7411    2.3102   -1.3584 C   0  0
   -2.9113    3.0082   -1.6280 C   0  0
   -3.3193    3.1911   -2.9347 C   0  0
   -2.5635    2.6797   -3.9749 C   0  0
   -1.3973    1.9838   -3.7093 C   0  0
   -0.9845    1.7979   -2.4045 C   0  0
   -3.0791    2.9119   -5.6162 Cl  0  0
    2.1440    2.8449    1.9634 O   0  5
    9.2072    8.6767    0.6793 H   0  0
    7.8439    9.7856    0.4713 H   0  0
    9.3534   10.0412   -0.5322 H   0  0
    8.9986    9.1847   -2.7685 H   0  0
    7.8915    7.5409   -4.3030 H   0  0
    6.3719    5.8244   -3.3499 H   0  0
    6.9617    7.2991    0.5215 H   0  0
    5.7500    4.6013   -1.5009 H   0  0
    6.0072    5.2297    0.1622 H   0  0
    4.2359    6.9388   -0.2095 H   0  0
    3.9773    6.3099   -1.8722 H   0  0
    3.7371    4.1067   -0.0309 H   0  0
    2.1929    7.2981   -0.9991 H   0  0
   -0.2281    7.7759   -0.8053 H   0  0
   -1.7784    6.0576    0.0850 H   0  0
   -1.0197    1.1874    0.2762 H   0  0
   -3.5125    3.4149   -0.8015 H   0  0
   -4.2459    3.7438   -3.1488 H   0  0
   -0.7985    1.5783   -4.5382 H   0  0
   -0.0574    1.2446   -2.1939 H   0  0
  1  2  1  0
  2  7  2  0
  2  3  1  0
  3  4  2  0
  4  5  1  0
  5  6  2  0
  6  7  1  0
  6  8  1  0
  8  9  1  0
  9 10  1  0
 10 11  1  0
 11 16  2  0
 11 12  1  0
 12 13  2  0
 13 14  1  0
 14 15  2  0
 15 16  1  0
 15 19  1  0
 16 17  1  0
 17 18  2  0
 17 30  1  0
 19 20  2  0
 19 21  2  0
 19 22  1  0
 22 23  1  0
 23 28  2  0
 23 24  1  0
 24 25  2  0
 25 26  1  0
 26 27  2  0
 26 29  1  0
 27 28  1  0
  1 31  1  0
  1 32  1  0
  1 33  1  0
  3 34  1  0
  4 35  1  0
  5 36  1  0
  7 37  1  0
  8 38  1  0
  8 39  1  0
  9 40  1  0
  9 41  1  0
 10 42  1  0
 12 43  1  0
 13 44  1  0
 14 45  1  0
 22 46  1  0
 24 47  1  0
 25 48  1  0
 27 49  1  0
 28 50  1  0
M  CHG  2   6   1  30  -1
M  END
> <Name>
ZINC04046948

> <reference>
BDB50024710

> <quality>
0.731

> <status>
decoy

$$$$
ZINC22899363
  SciTegic06061311253D

 65 67  0  0  1  0            999 V2000
   -4.4319   -2.5862    0.8681 C   0  0
   -3.4964   -2.8148   -0.3208 C   0  0
   -2.0712   -2.4164    0.0677 C   0  0  1  0  0  0
   -1.1121   -2.7823   -1.0669 C   0  0
    0.3289   -2.5348   -0.6164 C   0  0
   -2.0135   -0.9081    0.3177 C   0  0  2  0  0  0
   -2.2636   -0.1635   -0.9952 C   0  0
   -2.4345    1.2655   -0.7214 N   0  0
   -2.6829    2.1205   -1.7331 C   0  0
   -2.7650    1.7070   -2.8703 O   0  0
   -2.8587    3.5905   -1.4513 C   0  0
   -3.1166    4.3008   -2.7064 N   0  0
   -4.3453    4.5109   -3.2187 C   0  0
   -5.4053    4.1599   -2.7466 O   0  0
   -4.1260    5.2764   -4.5085 C   0  0  2  0  0  0
   -2.6619    5.4226   -4.5798 N   0  5
   -2.1618    4.8262   -3.4826 C   0  0
   -0.9751    4.7682   -3.2267 O   0  0
   -4.8013    6.6477   -4.4420 C   0  0
   -4.6382    4.4883   -5.6865 C   0  0
   -5.6991    3.6167   -5.5257 C   0  0
   -6.1727    2.8970   -6.6063 C   0  0
   -5.5774    3.0413   -7.8480 C   0  0
   -4.5115    3.9107   -8.0067 C   0  0
   -4.0430    4.6333   -6.9258 C   0  0
   -6.0365    2.3348   -8.9040 F   0  0
   -0.6882   -0.5487    0.8397 N   0  3
   -0.4828    0.9065    0.7987 C   0  0
    0.9290    1.2313    1.2942 C   0  0
    1.1019    0.6969    2.6094 O   0  0
    0.9097   -0.7182    2.6857 C   0  0
   -0.5022   -1.0628    2.2044 C   0  0
   -4.4134   -1.5235    1.1515 H   0  0
   -4.1002   -3.1981    1.7199 H   0  0
   -5.4568   -2.8725    0.5894 H   0  0
   -3.8280   -2.2030   -1.1727 H   0  0
   -3.5153   -3.8777   -0.6033 H   0  0
   -1.7776   -2.9513    0.9829 H   0  0
   -1.2377   -3.8441   -1.3253 H   0  0
   -1.3315   -2.1620   -1.9484 H   0  0
    0.5505   -3.1553    0.2645 H   0  0
    0.4561   -1.4732   -0.3578 H   0  0
    1.0190   -2.7977   -1.4317 H   0  0
   -2.7846   -0.6281    1.0505 H   0  0
   -1.4051   -0.3073   -1.6677 H   0  0
   -3.1734   -0.5559   -1.4730 H   0  0
   -2.3648    1.6168    0.2443 H   0  0
   -3.7088    3.7339   -0.7681 H   0  0
   -1.9440    3.9880   -0.9872 H   0  0
   -4.3769    7.2160   -3.6012 H   0  0
   -5.8799    6.5086   -4.2765 H   0  0
   -4.6362    7.1945   -5.3821 H   0  0
   -6.1665    3.4959   -4.5373 H   0  0
   -7.0223    2.2098   -6.4799 H   0  0
   -4.0378    4.0262   -8.9927 H   0  0
   -3.1962    5.3241   -7.0516 H   0  0
    0.0190   -0.9885    0.2336 H   0  0
   -0.6003    1.2652   -0.2345 H   0  0
   -1.2214    1.4012    1.4466 H   0  0
    1.0681    2.3221    1.3206 H   0  0
    1.6689    0.7819    0.6155 H   0  0
    1.0333   -1.0512    3.7268 H   0  0
    1.6485   -1.2243    2.0469 H   0  0
   -0.6341   -2.1549    2.2078 H   0  0
   -1.2413   -0.6003    2.8751 H   0  0
  1  2  1  0
  2  3  1  0
  3  4  1  0
  3  6  1  0
  4  5  1  0
  6  7  1  0
  6 27  1  0
  7  8  1  0
  8  9  1  0
  9 10  2  0
  9 11  1  0
 11 12  1  0
 12 17  1  0
 12 13  1  0
 13 14  2  0
 13 15  1  0
 15 16  1  0
 15 19  1  0
 15 20  1  0
 16 17  1  0
 17 18  2  0
 20 25  2  0
 20 21  1  0
 21 22  2  0
 22 23  1  0
 23 24  2  0
 23 26  1  0
 24 25  1  0
 27 32  1  0
 27 28  1  0
 28 29  1  0
 29 30  1  0
 30 31  1  0
 31 32  1  0
  1 33  1  0
  1 34  1  0
  1 35  1  0
  2 36  1  0
  2 37  1  0
  3 38  1  0
  4 39  1  0
  4 40  1  0
  5 41  1  0
  5 42  1  0
  5 43  1  0
  6 44  1  0
  7 45  1  0
  7 46  1  0
  8 47  1  0
 11 48  1  0
 11 49  1  0
 19 50  1  0
 19 51  1  0
 19 52  1  0
 21 53  1  0
 22 54  1  0
 24 55  1  0
 25 56  1  0
 27 57  1  0
 28 58  1  0
 28 59  1  0
 29 60  1  0
 29 61  1  0
 31 62  1  0
 31 63  1  0
 32 64  1  0
 32 65  1  0
M  CHG  2  16  -1  27   1
M  END
> <Name>
ZINC22899363

> <reference>
BDB50024710

> <quality>
0.731

> <status>
decoy

$$$$
ZINC29850613
  SciTegic06061311253D

 64 65  0  0  1  0            999 V2000
    4.1251    6.0718    1.0139 C   0  0
    3.1023    6.3705   -0.0841 C   0  0  1  0  0  0
    1.9308    5.4324    0.0519 C   0  0
    0.8174    5.8756    0.2382 O   0  0
    2.1205    4.1007   -0.0334 N   0  0
    1.0259    3.2392   -0.0221 C   0  0
   -0.0195    3.4541    0.8646 C   0  0
   -1.1120    2.5901    0.8730 C   0  0
   -1.1589    1.5105   -0.0134 C   0  0
   -0.1220    1.2901   -0.8912 C   0  0
    0.9777    2.1518   -0.9065 C   0  0
    2.0870    1.9178   -1.8516 C   0  0
    3.0271    2.6864   -1.8871 O   0  0
    2.0571    0.8517   -2.6749 O   0  0
    3.1818    0.6843   -3.5778 C   0  0
   -2.2274    2.8190    1.8179 C   0  0
   -2.1899    3.7595    2.5852 O   0  0
   -3.2843    1.9841    1.8271 O   0  0
   -4.3416    2.2696    2.7804 C   0  0
    2.6364    7.7577    0.0451 N   0  0
    2.1572    8.0080    1.3375 C   0  0
    1.4801    9.3936    1.4322 C   0  0
    2.5468   10.4581    1.4683 C   0  0
    2.8793   10.9877    0.1262 N   0  0
    2.9672    9.9479   -0.9198 C   0  0
    3.6658    8.7076   -0.4229 C   0  0
    4.1045   11.7971    0.1682 C   0  0
    3.8605   13.0353    0.9919 C   0  0
    2.7731   13.2248    1.4944 O   0  0
    4.8507   13.9320    1.1701 N   0  0
    4.6136   15.1357    1.9708 C   0  0
    6.1643   13.7030    0.5632 C   0  0
    4.4748    5.0333    0.9180 H   0  0
    3.6574    6.2109    1.9998 H   0  0
    4.9805    6.7563    0.9152 H   0  0
    3.5709    6.2313   -1.0695 H   0  0
    3.0748    3.7201   -0.1069 H   0  0
    0.0145    4.3057    1.5600 H   0  0
   -2.0271    0.8350   -0.0095 H   0  0
   -0.1591    0.4345   -1.5815 H   0  0
    4.0811    0.6337   -2.9464 H   0  0
    3.2395    1.6062   -4.1751 H   0  0
    3.0841   -0.2064   -4.2158 H   0  0
   -4.6852    3.2922    2.5651 H   0  0
   -3.8700    2.2736    3.7742 H   0  0
   -5.1675    1.5450    2.7268 H   0  0
    1.4284    7.2300    1.6087 H   0  0
    2.9956    7.9661    2.0483 H   0  0
    0.8764    9.4473    2.3502 H   0  0
    0.8354    9.5490    0.5545 H   0  0
    2.2033   11.2876    2.1039 H   0  0
    3.4571   10.0387    1.9214 H   0  0
    3.5181   10.3497   -1.7830 H   0  0
    1.9520    9.6817   -1.2492 H   0  0
    4.2430    8.2554   -1.2429 H   0  0
    4.3346    8.9691    0.4103 H   0  0
    4.3885   12.0877   -0.8540 H   0  0
    4.9167   11.2099    0.6216 H   0  0
    4.2760   14.7664    2.9504 H   0  0
    3.7544   15.6315    1.4954 H   0  0
    5.4887   15.7974    2.0506 H   0  0
    5.9668   13.5876   -0.5127 H   0  0
    6.4882   12.7225    0.9424 H   0  0
    6.8965   14.4968    0.7727 H   0  0
  1  2  1  0
  2  3  1  0
  2 20  1  0
  3  4  2  0
  3  5  1  0
  5  6  1  0
  6 11  2  0
  6  7  1  0
  7  8  2  0
  8  9  1  0
  8 16  1  0
  9 10  2  0
 10 11  1  0
 11 12  1  0
 12 13  2  0
 12 14  1  0
 14 15  1  0
 16 17  2  0
 16 18  1  0
 18 19  1  0
 20 26  1  0
 20 21  1  0
 21 22  1  0
 22 23  1  0
 23 24  1  0
 24 25  1  0
 24 27  1  0
 25 26  1  0
 27 28  1  0
 28 29  2  0
 28 30  1  0
 30 31  1  0
 30 32  1  0
  1 33  1  0
  1 34  1  0
  1 35  1  0
  2 36  1  0
  5 37  1  0
  7 38  1  0
  9 39  1  0
 10 40  1  0
 15 41  1  0
 15 42  1  0
 15 43  1  0
 19 44  1  0
 19 45  1  0
 19 46  1  0
 21 47  1  0
 21 48  1  0
 22 49  1  0
 22 50  1  0
 23 51  1  0
 23 52  1  0
 25 53  1  0
 25 54  1  0
 26 55  1  0
 26 56  1  0
 27 57  1  0
 27 58  1  0
 31 59  1  0
 31 60  1  0
 31 61  1  0
 32 62  1  0
 32 63  1  0
 32 64  1  0
M  END
> <Name>
ZINC29850613

> <reference>
BDB50024710

> <quality>
0.729

> <status>
decoy

$$$$
ZINC24867276
  SciTegic06061311253D

 53 55  0  0  0  0            999 V2000
    1.9109   -1.8039    1.8619 C   0  0
    1.8114   -1.5964    0.3493 C   0  0
    1.2745   -0.2172    0.0657 C   0  0
   -0.0542    0.1299   -0.0749 C   0  0
   -0.0980    1.5194   -0.3313 C   0  0
    1.1271    1.9678   -0.3420 N   0  0
    2.0020    0.9035   -0.0967 N   0  0
    3.3972    0.9899   -0.0310 C   0  0
    4.0660    2.0150   -0.6986 C   0  0
    5.4468    2.0592   -0.6036 C   0  0
    6.0817    1.0764    0.1533 C   0  0
    5.3642    0.1409    0.7527 N   0  0
    4.0840    0.1026    0.6690 N   0  0
    7.4335    1.0794    0.2754 O   0  0
    8.0157    0.0415    1.0666 C   0  0
   -1.2109   -0.7783    0.0242 C   0  0
   -1.0381   -1.9606    0.2507 O   0  0
   -2.4601   -0.2985   -0.1361 N   0  0
   -3.5509   -1.1768   -0.1527 C   0  0
   -3.4083   -2.4504   -0.6871 C   0  0
   -4.4820   -3.3209   -0.7003 C   0  0
   -5.7060   -2.9216   -0.1901 C   0  0
   -5.8545   -1.6427    0.3422 C   0  0
   -4.7756   -0.7719    0.3599 C   0  0
   -7.0906   -1.2377    0.8587 N   0  0
   -7.5880    0.3319    0.6812 S   0  0
   -8.8978    0.3616    1.2314 O   0  0
   -6.5447    1.1096    1.2520 O   0  0
   -7.6573    0.5990   -1.1117 C   0  0
   -6.7632   -3.7782   -0.2082 O   0  0
   -6.5391   -5.0734   -0.7688 C   0  0
    0.9135   -1.6994    2.3138 H   0  0
    2.5884   -1.0518    2.2924 H   0  0
    2.3028   -2.8105    2.0696 H   0  0
    1.1339   -2.3485   -0.0813 H   0  0
    2.8093   -1.7007   -0.1017 H   0  0
   -1.0065    2.1181   -0.4935 H   0  0
    3.5137    2.7657   -1.2829 H   0  0
    6.0249    2.8461   -1.1102 H   0  0
    7.6903   -0.9088    0.6182 H   0  0
    7.5575    0.1186    2.0636 H   0  0
    9.1123    0.1105    1.1184 H   0  0
   -2.6126    0.7142   -0.2464 H   0  0
   -2.4394   -2.7671   -1.1006 H   0  0
   -4.3640   -4.3322   -1.1166 H   0  0
   -4.8901    0.2384    0.7796 H   0  0
   -7.6909   -1.9159    1.3492 H   0  0
   -8.3896   -0.0663   -1.5925 H   0  0
   -6.6678    0.4810   -1.5775 H   0  0
   -7.9851    1.6348   -1.2842 H   0  0
   -5.7146   -5.5206   -0.1942 H   0  0
   -6.1834   -4.9082   -1.7965 H   0  0
   -7.4378   -5.7073   -0.7481 H   0  0
  1  2  1  0
  2  3  1  0
  3  7  1  0
  3  4  2  0
  4  5  1  0
  4 16  1  0
  5  6  2  0
  6  7  1  0
  7  8  1  0
  8 13  2  0
  8  9  1  0
  9 10  2  0
 10 11  1  0
 11 12  2  0
 11 14  1  0
 12 13  1  0
 14 15  1  0
 16 17  2  0
 16 18  1  0
 18 19  1  0
 19 24  2  0
 19 20  1  0
 20 21  2  0
 21 22  1  0
 22 23  2  0
 22 30  1  0
 23 24  1  0
 23 25  1  0
 25 26  1  0
 26 27  2  0
 26 28  2  0
 26 29  1  0
 30 31  1  0
  1 32  1  0
  1 33  1  0
  1 34  1  0
  2 35  1  0
  2 36  1  0
  5 37  1  0
  9 38  1  0
 10 39  1  0
 15 40  1  0
 15 41  1  0
 15 42  1  0
 18 43  1  0
 20 44  1  0
 21 45  1  0
 24 46  1  0
 25 47  1  0
 29 48  1  0
 29 49  1  0
 29 50  1  0
 31 51  1  0
 31 52  1  0
 31 53  1  0
M  END
> <Name>
ZINC24867276

> <reference>
BDB50024710

> <quality>
0.725

> <status>
decoy

$$$$
ZINC22746527
  SciTegic06061311253D

 52 54  0  0  0  0            999 V2000
   -1.4292    7.9822    6.9037 C   0  0
   -2.0785    6.9205    6.0135 C   0  0
   -3.0205    7.5440    5.1384 O   0  0
   -3.6906    6.7346    4.2749 C   0  0
   -4.6194    7.2747    3.3977 C   0  0
   -5.3006    6.4535    2.5208 C   0  0
   -5.0551    5.0868    2.5172 C   0  0
   -4.1289    4.5462    3.3993 C   0  0
   -3.4444    5.3697    4.2716 C   0  0
   -5.7448    4.2540    1.6290 N   0  0
   -5.3515    4.2525    0.0204 S   0  0
   -5.3427    5.6109   -0.3968 O   0  0
   -6.1726    3.2711   -0.5976 O   0  0
   -3.6919    3.6750   -0.1096 C   0  0
   -3.4366    2.3156   -0.1461 C   0  0
   -2.1397    1.8566   -0.2474 C   0  0
   -1.0834    2.7674   -0.3131 C   0  0
   -1.3478    4.1377   -0.2699 C   0  0
   -2.6499    4.5831   -0.1743 C   0  0
    0.3080    2.2832   -0.4216 C   0  0
    0.5352    1.0904   -0.4539 O   0  0
    1.3244    3.1646   -0.4904 O   0  0
    2.6649    2.6177   -0.6019 C   0  0
    3.6634    3.7445   -0.6662 C   0  0
    3.2831    4.8948   -0.6225 O   0  0
    4.9794    3.4734   -0.7725 N   0  0
    6.0523    4.4761   -0.8500 C   0  0
    7.3383    3.6334   -0.9547 C   0  0
    6.8527    2.2455   -0.9343 N   0  0
    5.5173    2.2481   -0.8300 C   0  0
    4.8537    1.2306   -0.7906 O   0  0
   -2.2042    8.4864    7.4996 H   0  0
   -0.9112    8.7220    6.2756 H   0  0
   -0.7039    7.5029    7.5776 H   0  0
   -1.3029    6.4170    5.4178 H   0  0
   -2.5965    6.1807    6.6415 H   0  0
   -4.8135    8.3574    3.4005 H   0  0
   -6.0374    6.8820    1.8254 H   0  0
   -3.9404    3.4625    3.4033 H   0  0
   -2.7038    4.9429    4.9639 H   0  0
   -6.4971    3.6419    1.9758 H   0  0
   -4.2697    1.5992   -0.0942 H   0  0
   -1.9382    0.7756   -0.2764 H   0  0
   -0.5197    4.8605   -0.3120 H   0  0
   -2.8603    5.6625   -0.1495 H   0  0
    2.7394    2.0102   -1.5159 H   0  0
    2.8786    1.9888    0.2749 H   0  0
    6.0733    5.0845    0.0662 H   0  0
    5.9315    5.0943   -1.7518 H   0  0
    7.8515    3.8428   -1.9049 H   0  0
    7.9870    3.8219   -0.0865 H   0  0
    7.4453    1.4050   -0.9912 H   0  0
  1  2  1  0
  2  3  1  0
  3  4  1  0
  4  9  2  0
  4  5  1  0
  5  6  2  0
  6  7  1  0
  7  8  2  0
  7 10  1  0
  8  9  1  0
 10 11  1  0
 11 12  2  0
 11 13  2  0
 11 14  1  0
 14 19  2  0
 14 15  1  0
 15 16  2  0
 16 17  1  0
 17 18  2  0
 17 20  1  0
 18 19  1  0
 20 21  2  0
 20 22  1  0
 22 23  1  0
 23 24  1  0
 24 25  2  0
 24 26  1  0
 26 30  1  0
 26 27  1  0
 27 28  1  0
 28 29  1  0
 29 30  1  0
 30 31  2  0
  1 32  1  0
  1 33  1  0
  1 34  1  0
  2 35  1  0
  2 36  1  0
  5 37  1  0
  6 38  1  0
  8 39  1  0
  9 40  1  0
 10 41  1  0
 15 42  1  0
 16 43  1  0
 18 44  1  0
 19 45  1  0
 23 46  1  0
 23 47  1  0
 27 48  1  0
 27 49  1  0
 28 50  1  0
 28 51  1  0
 29 52  1  0
M  END
> <Name>
ZINC22746527

> <reference>
BDB50024710

> <quality>
0.725

> <status>
decoy

$$$$
ZINC27534471
  SciTegic06061311253D

 62 64  0  0  0  0            999 V2000
   -5.1721    0.3310  -12.1968 C   0  0
   -3.7280   -0.0781  -11.8999 C   0  0
   -2.9807    1.0852  -11.4156 N   0  0
   -2.2807    1.9535  -12.3656 C   0  0
   -0.8531    1.4417  -12.5679 C   0  0
   -2.9371    1.3566  -10.0962 C   0  0
   -3.5166    0.6378   -9.3098 O   0  0
   -2.1684    2.5533   -9.5981 C   0  0
   -2.2745    2.6290   -8.1389 N   0  0
   -3.2931    3.3301   -7.5828 C   0  0
   -3.4361    3.4307   -6.2893 N   0  0
   -2.5898    2.8498   -5.4485 C   0  0
   -1.4876    2.0915   -5.9051 C   0  0
   -1.3581    2.0002   -7.3772 C   0  0
   -0.4467    1.3725   -7.8866 O   0  0
   -0.6745    1.5413   -4.9115 C   0  0
   -0.9773    1.7441   -3.5970 C   0  0
   -2.4466    2.7540   -3.6819 S   0  0
   -0.2681    1.2584   -2.4090 C   0  0
    0.7296    0.5729   -2.5339 O   0  0
   -0.7213    1.5711   -1.1789 N   0  0
   -0.0127    1.0858    0.0080 C   0  0
   -0.7288    1.5792    1.2668 C   0  0
    0.0111    1.0724    2.5063 C   0  0
   -0.6764    1.5461    3.7150 N   0  0
   -0.5844    3.0085    3.8344 C   0  0
   -1.3627    3.4640    5.0716 C   0  0
   -0.8490    2.7932    6.2255 O   0  0
   -0.9236    1.3673    6.1433 C   0  0
   -0.1409    0.8906    4.9169 C   0  0
    0.5316    0.7213   -5.2908 C   0  0
   -5.1808    1.1176  -12.9657 H   0  0
   -5.6427    0.7118  -11.2783 H   0  0
   -5.7338   -0.5420  -12.5605 H   0  0
   -3.7203   -0.8644  -11.1307 H   0  0
   -3.2574   -0.4589  -12.8183 H   0  0
   -2.8119    1.9469  -13.3288 H   0  0
   -2.2490    2.9799  -11.9713 H   0  0
   -0.8829    0.4157  -12.9633 H   0  0
   -0.3204    1.4478  -11.6055 H   0  0
   -0.3269    2.0932  -13.2811 H   0  0
   -2.5846    3.4691  -10.0433 H   0  0
   -1.1107    2.4547   -9.8837 H   0  0
   -4.0201    3.8286   -8.2408 H   0  0
   -1.5658    2.1512   -1.0732 H   0  0
    0.0018   -0.0141    0.0024 H   0  0
    1.0194    1.4662    0.0013 H   0  0
   -0.7433    2.6791    1.2733 H   0  0
   -1.7609    1.1988    1.2757 H   0  0
    1.0432    1.4527    2.4996 H   0  0
    0.0256   -0.0275    2.5006 H   0  0
   -1.0138    3.4791    2.9376 H   0  0
    0.4705    3.3032    3.9359 H   0  0
   -1.2484    4.5507    5.1979 H   0  0
   -2.4276    3.2175    4.9481 H   0  0
   -0.4886    0.9237    7.0510 H   0  0
   -1.9751    1.0582    6.0497 H   0  0
   -0.2440   -0.2000    4.8174 H   0  0
    0.9212    1.1509    5.0362 H   0  0
    1.1336    1.3809   -5.9330 H   0  0
    0.1391   -0.0833   -5.9300 H   0  0
    1.0993    0.3375   -4.4304 H   0  0
  1  2  1  0
  2  3  1  0
  3  4  1  0
  3  6  1  0
  4  5  1  0
  6  7  2  0
  6  8  1  0
  8  9  1  0
  9 14  1  0
  9 10  1  0
 10 11  2  0
 11 12  1  0
 12 18  1  0
 12 13  2  0
 13 14  1  0
 13 16  1  0
 14 15  2  0
 16 17  2  0
 16 31  1  0
 17 18  1  0
 17 19  1  0
 19 20  2  0
 19 21  1  0
 21 22  1  0
 22 23  1  0
 23 24  1  0
 24 25  1  0
 25 30  1  0
 25 26  1  0
 26 27  1  0
 27 28  1  0
 28 29  1  0
 29 30  1  0
  1 32  1  0
  1 33  1  0
  1 34  1  0
  2 35  1  0
  2 36  1  0
  4 37  1  0
  4 38  1  0
  5 39  1  0
  5 40  1  0
  5 41  1  0
  8 42  1  0
  8 43  1  0
 10 44  1  0
 21 45  1  0
 22 46  1  0
 22 47  1  0
 23 48  1  0
 23 49  1  0
 24 50  1  0
 24 51  1  0
 26 52  1  0
 26 53  1  0
 27 54  1  0
 27 55  1  0
 29 56  1  0
 29 57  1  0
 30 58  1  0
 30 59  1  0
 31 60  1  0
 31 61  1  0
 31 62  1  0
M  END
> <Name>
ZINC27534471

> <reference>
BDB50024710

> <quality>
0.720

> <status>
decoy

$$$$
ZINC11070329
  SciTegic06061311253D

 50 52  0  0  0  0            999 V2000
   -1.2209   -2.2194    0.1286 C   0  0
   -2.4255   -2.8230    0.1408 C   0  0
   -3.5636   -1.4530    0.1288 S   0  0
   -2.4332   -0.1413    0.1157 C   0  0
   -1.2096   -0.7781    0.1207 C   0  0
    0.0517   -0.0194    0.1122 C   0  0
    1.1159   -0.6086    0.1164 O   0  0
    0.0275    1.3280    0.0996 N   0  0
    1.2829    2.0831    0.0911 C   0  0
    0.9764    3.5821    0.0774 C   0  0
    2.2678    4.3588    0.0686 C   0  0
    3.3248    3.7736    0.0729 O   0  0
    2.2437    5.7008    0.0561 O   0  0
    3.5254    6.3831    0.0482 C   0  0
    3.3012    7.8732    0.0345 C   0  0
    2.1722    8.3167    0.0317 O   0  0
    4.3551    8.7132    0.0254 N   0  0
    4.1487   10.0949   -0.0800 C   0  0
    3.0438   10.6800    0.5262 C   0  0
    2.8485   12.0457    0.4216 C   0  0
    3.7463   12.8255   -0.2944 C   0  0
    4.8445   12.2416   -0.9022 C   0  0
    5.0452   10.8773   -0.7948 C   0  0
    6.2188   10.2502   -1.4433 N   0  0
    7.0593   10.9457   -1.9849 O   0  0
    6.3441    9.0387   -1.4353 O   0  0
    3.5391   14.1714   -0.3956 O   0  0
    3.6909   14.9196    0.8124 C   0  0
    2.4067   14.8960    1.6264 C   0  0
    2.0573   13.4994    2.1160 C   0  0
    1.7698   12.6337    1.0161 O   0  0
   -0.2872   -2.8010    0.1248 H   0  0
   -2.6511   -3.8995    0.1548 H   0  0
   -2.6408    0.9389    0.1058 H   0  0
   -0.8736    1.8269    0.0959 H   0  0
    1.8653    1.8367    0.9912 H   0  0
    1.8641    1.8203   -0.8051 H   0  0
    0.3961    3.8471    0.9736 H   0  0
    0.3944    3.8293   -0.8227 H   0  0
    4.0925    6.0902   -0.8477 H   0  0
    4.0937    6.1066    0.9485 H   0  0
    5.3123    8.3394    0.0959 H   0  0
    2.3280   10.0605    1.0864 H   0  0
    5.5554   12.8608   -1.4689 H   0  0
    3.9453   15.9610    0.5660 H   0  0
    4.5068   14.4849    1.4086 H   0  0
    2.5192   15.5625    2.4942 H   0  0
    1.5807   15.2757    1.0071 H   0  0
    1.1776   13.5531    2.7741 H   0  0
    2.9047   13.0913    2.6864 H   0  0
  1  5  1  0
  1  2  2  0
  2  3  1  0
  3  4  1  0
  4  5  2  0
  5  6  1  0
  6  7  2  0
  6  8  1  0
  8  9  1  0
  9 10  1  0
 10 11  1  0
 11 12  2  0
 11 13  1  0
 13 14  1  0
 14 15  1  0
 15 16  2  0
 15 17  1  0
 17 18  1  0
 18 23  2  0
 18 19  1  0
 19 20  2  0
 20 31  1  0
 20 21  1  0
 21 22  2  0
 21 27  1  0
 22 23  1  0
 23 24  1  0
 24 25  2  0
 24 26  2  0
 27 28  1  0
 28 29  1  0
 29 30  1  0
 30 31  1  0
  1 32  1  0
  2 33  1  0
  4 34  1  0
  8 35  1  0
  9 36  1  0
  9 37  1  0
 10 38  1  0
 10 39  1  0
 14 40  1  0
 14 41  1  0
 17 42  1  0
 19 43  1  0
 22 44  1  0
 28 45  1  0
 28 46  1  0
 29 47  1  0
 29 48  1  0
 30 49  1  0
 30 50  1  0
M  END
> <Name>
ZINC11070329

> <reference>
BDB50024710

> <quality>
0.719

> <status>
decoy

$$$$
ZINC17428572
  SciTegic06061311253D

 47 49  0  0  1  0            999 V2000
    8.5700    6.4321    3.0898 C   0  0
    8.3447    5.9612    1.6761 C   0  0
    8.7153    6.6391    0.7471 O   0  0
    7.7321    4.7887    1.4489 O   0  0
    7.5487    4.3985    0.0623 C   0  0
    6.8383    3.0447    0.0031 C   0  0  2  0  0  0
    6.6734    2.5849   -1.4624 C   0  0  2  0  0  0
    5.2891    1.8990   -1.4872 C   0  0  1  0  0  0
    4.7814    2.0256   -0.0337 C   0  0  1  0  0  0
    5.4899    3.1621    0.5070 O   0  0
    3.3371    2.2702   -0.0175 N   0  0
    2.7274    3.4764   -0.0047 C   0  0
    1.4321    3.3239    0.0070 N   0  0
    1.1271    2.0127    0.0021 C   0  0
    2.3432    1.3117   -0.0133 C   0  0
    2.3142   -0.0850   -0.0210 C   0  0
    1.1333   -0.6982   -0.0130 N   0  0
    0.0021   -0.0041    0.0020 C   0  0
   -0.0159    1.3179    0.0093 N   0  0
   -1.5296   -0.8750    0.0120 S   0  0
    4.3956    2.5892   -2.4002 O   0  0
    3.4015    1.8679   -2.9417 C   0  0
    3.2820    0.6986   -2.6622 O   0  0
    2.4346    2.5167   -3.8984 C   0  0
    7.7161    1.6395   -1.8193 O   0  0
    8.8372    2.1436   -2.3587 C   0  0
    8.9437    3.3354   -2.5269 O   0  0
    9.9629    1.2232   -2.7543 C   0  0
    3.8104   -1.0154   -0.0403 S   0  0
    8.0829    7.4164    3.1526 H   0  0
    9.6550    6.5905    3.1771 H   0  0
    8.1894    5.7300    3.8462 H   0  0
    8.5291    4.3191   -0.4302 H   0  0
    6.9391    5.1547   -0.4540 H   0  0
    7.4443    2.3415    0.5933 H   0  0
    6.7475    3.4164   -2.1787 H   0  0
    5.3392    0.8548   -1.8294 H   0  0
    4.9565    1.1097    0.5498 H   0  0
    3.2478    4.4455   -0.0042 H   0  0
   -1.4902   -1.6879    1.1140 H   0  0
    3.0604    2.9328   -4.7017 H   0  0
    2.0071    3.3652   -3.3440 H   0  0
    1.6625    1.8320   -4.2793 H   0  0
    9.5138    0.5047   -3.4558 H   0  0
   10.2177    0.6703   -1.8381 H   0  0
   10.8303    1.7448   -3.1851 H   0  0
    4.5070   -0.5866    1.0587 H   0  0
  1  2  1  0
  2  3  2  0
  2  4  1  0
  4  5  1  0
  5  6  1  0
  6 10  1  0
  6  7  1  0
  7  8  1  0
  7 25  1  0
  8  9  1  0
  8 21  1  0
  9 10  1  0
  9 11  1  0
 11 15  1  0
 11 12  1  0
 12 13  2  0
 13 14  1  0
 14 19  2  0
 14 15  1  0
 15 16  2  0
 16 17  1  0
 16 29  1  0
 17 18  2  0
 18 19  1  0
 18 20  1  0
 21 22  1  0
 22 23  2  0
 22 24  1  0
 25 26  1  0
 26 27  2  0
 26 28  1  0
  1 30  1  0
  1 31  1  0
  1 32  1  0
  5 33  1  0
  5 34  1  0
  6 35  1  0
  7 36  1  0
  8 37  1  0
  9 38  1  0
 12 39  1  0
 20 40  1  0
 24 41  1  0
 24 42  1  0
 24 43  1  0
 28 44  1  0
 28 45  1  0
 28 46  1  0
 29 47  1  0
M  END
> <Name>
ZINC17428572

> <reference>
BDB50024710

> <quality>
0.715

> <status>
decoy

$$$$
ZINC17879314
  SciTegic06061311253D

 59 61  0  0  0  0            999 V2000
   -1.7598   12.5194   -1.2446 C   0  0
   -2.3199   11.2084   -1.1467 O   0  0
   -3.0171   10.9640    0.0765 C   0  0
   -3.5715    9.5380    0.0715 C   0  0
   -2.4610    8.5825    0.0608 N   0  0
   -2.7116    7.2582    0.0549 C   0  0
   -3.8587    6.8567    0.0584 O   0  0
   -1.6900    6.3791    0.0451 N   0  0
   -1.9406    5.0549    0.0391 C   0  0
   -3.0848    4.6544    0.0426 O   0  0
   -0.7983    4.0719    0.0281 C   0  0
   -1.4555    2.3812    0.0222 S   0  0
   -0.0165    1.3645    0.0095 C   0  0
    1.2250    1.7857    0.0000 N   0  0
    2.0637    0.6637   -0.0141 N   0  0
    1.3092   -0.4076   -0.0126 C   0  0
    0.0021   -0.0041    0.0020 N   0  0
   -1.1222   -0.8455    0.0089 C   0  0
   -1.6906   -1.2560   -1.1875 C   0  0
   -2.7967   -2.0844   -1.1785 C   0  0
   -3.3389   -2.5063    0.0216 C   0  0
   -2.7777   -2.1012    1.2180 C   0  0
   -1.6655   -1.2744    1.2171 C   0  0
   -1.1089   -0.8795    2.3930 O   0  0
   -1.7195   -1.3586    3.5929 C   0  0
    1.7578   -1.7223   -0.0240 N   0  0
    1.2092   -2.4754    1.1110 C   0  0
    1.6046   -3.9485    0.9864 C   0  0
    3.1314   -4.0620    0.9648 C   0  0
    3.6808   -3.2298   -0.1972 C   0  0
    3.2252   -1.7775   -0.0383 C   0  0
   -1.0723   12.6505   -0.3960 H   0  0
   -2.5837   13.2406   -1.1395 H   0  0
   -1.2335   12.6638   -2.1997 H   0  0
   -3.8472   11.6789    0.1759 H   0  0
   -2.3256   11.0850    0.9234 H   0  0
   -4.1827    9.3789    0.9721 H   0  0
   -4.1921    9.3878   -0.8242 H   0  0
   -1.4888    8.9227    0.0578 H   0  0
   -0.7178    6.7193    0.0422 H   0  0
   -0.1868    4.2301   -0.8725 H   0  0
   -0.1771    4.2198    0.9238 H   0  0
   -1.2611   -0.9223   -2.1436 H   0  0
   -3.2469   -2.4089   -2.1282 H   0  0
   -4.2191   -3.1660    0.0241 H   0  0
   -3.2139   -2.4351    2.1710 H   0  0
   -1.7042   -2.4567    3.5306 H   0  0
   -2.7696   -1.0332    3.5568 H   0  0
   -1.2144   -0.9973    4.5009 H   0  0
    0.1125   -2.3900    1.1133 H   0  0
    1.6103   -2.0670    2.0503 H   0  0
    1.2074   -4.5093    1.8453 H   0  0
    1.1932   -4.3626    0.0541 H   0  0
    3.4209   -5.1148    0.8309 H   0  0
    3.5415   -3.6840    1.9129 H   0  0
    4.7800   -3.2719   -0.1916 H   0  0
    3.3017   -3.6307   -1.1488 H   0  0
    3.6064   -1.1802   -0.8797 H   0  0
    3.6176   -1.3723    0.9061 H   0  0
  1  2  1  0
  2  3  1  0
  3  4  1  0
  4  5  1  0
  5  6  1  0
  6  7  2  0
  6  8  1  0
  8  9  1  0
  9 10  2  0
  9 11  1  0
 11 12  1  0
 12 13  1  0
 13 17  1  0
 13 14  2  0
 14 15  1  0
 15 16  2  0
 16 17  1  0
 16 26  1  0
 17 18  1  0
 18 23  2  0
 18 19  1  0
 19 20  2  0
 20 21  1  0
 21 22  2  0
 22 23  1  0
 23 24  1  0
 24 25  1  0
 26 31  1  0
 26 27  1  0
 27 28  1  0
 28 29  1  0
 29 30  1  0
 30 31  1  0
  1 32  1  0
  1 33  1  0
  1 34  1  0
  3 35  1  0
  3 36  1  0
  4 37  1  0
  4 38  1  0
  5 39  1  0
  8 40  1  0
 11 41  1  0
 11 42  1  0
 19 43  1  0
 20 44  1  0
 21 45  1  0
 22 46  1  0
 25 47  1  0
 25 48  1  0
 25 49  1  0
 27 50  1  0
 27 51  1  0
 28 52  1  0
 28 53  1  0
 29 54  1  0
 29 55  1  0
 30 56  1  0
 30 57  1  0
 31 58  1  0
 31 59  1  0
M  END
> <Name>
ZINC17879314

> <reference>
BDB50024710

> <quality>
0.710

> <status>
decoy

$$$$
ZINC24307541
  SciTegic06061311253D

 56 59  0  0  0  0            999 V2000
    1.9276   10.3746   11.5150 C   0  0
    1.6902    9.9860   10.1226 N   0  0
    2.6441    9.8433    9.1594 C   0  0
    1.9717    9.4605    7.9822 C   0  0
    0.5974    9.3866    8.2966 C   0  0
    0.4441    9.6963    9.5524 N   0  0
    2.7345    9.2444    6.8185 C   0  0
    4.0514    9.4066    6.8876 N   0  0
    4.6376    9.7722    8.0138 C   0  0
    3.9681    9.9852    9.1255 N   0  0
    2.1293    8.8673    5.6358 N   0  0
    3.1221    8.7018    4.5658 C   0  0
    2.3996    8.4627    3.2357 C   0  0
    1.4725    7.3334    3.4040 N   0  0
    0.5333    7.3667    4.5354 C   0  0
    1.3333    7.6461    5.8177 C   0  0
    1.4795    6.2982    2.5410 C   0  0
    2.2574    6.2895    1.6106 O   0  0
    0.5207    5.1513    2.7323 C   0  0
    0.7740    3.9284    1.4222 S   0  0
   -0.4400    2.7355    1.8784 C   0  0
   -1.2439    2.8222    2.8987 N   0  0
   -2.0467    1.6733    2.9174 N   0  0
   -1.6862    0.9118    1.8639 C   0  0
   -2.1662   -0.1649    1.5563 O   0  0
   -0.6984    1.5583    1.2133 N   0  0
   -0.0127    1.0858    0.0080 C   0  0
   -0.7527    1.5927   -1.2315 C   0  0
   -0.0366    1.0992   -2.4903 C   0  0
   -0.7277    1.5726   -3.6480 O   0  0
   -0.1375    1.1657   -4.8842 C   0  0
    1.4532    9.5547   12.0742 H   0  0
    1.2615   11.2416   11.6361 H   0  0
    2.9710   10.5683   11.8044 H   0  0
   -0.2079    9.1136    7.5988 H   0  0
    5.7297    9.9037    8.0219 H   0  0
    3.7362    9.6113    4.4909 H   0  0
    3.7672    7.8401    4.7922 H   0  0
    3.1347    8.2225    2.4534 H   0  0
    1.8353    9.3643    2.9551 H   0  0
    0.0236    6.3959    4.6231 H   0  0
   -0.2053    8.1669    4.3798 H   0  0
    0.6393    7.7808    6.6605 H   0  0
    2.0031    6.7983    6.0240 H   0  0
    0.7006    4.6821    3.7108 H   0  0
   -0.5130    5.5249    2.6891 H   0  0
   -2.7775    1.4513    3.6085 H   0  0
    1.0191    1.4669   -0.0002 H   0  0
    0.0025   -0.0141    0.0008 H   0  0
   -1.7846    1.2116   -1.2241 H   0  0
   -0.7679    2.6926   -1.2266 H   0  0
    0.9953    1.4803   -2.4985 H   0  0
   -0.0214   -0.0007   -2.4975 H   0  0
   -0.1127    0.0660   -4.8937 H   0  0
    0.8978    1.5371   -4.8954 H   0  0
   -0.7003    1.5513   -5.7471 H   0  0
  1  2  1  0
  2  6  1  0
  2  3  1  0
  3 10  2  0
  3  4  1  0
  4  5  1  0
  4  7  2  0
  5  6  2  0
  7  8  1  0
  7 11  1  0
  8  9  2  0
  9 10  1  0
 11 16  1  0
 11 12  1  0
 12 13  1  0
 13 14  1  0
 14 15  1  0
 14 17  1  0
 15 16  1  0
 17 18  2  0
 17 19  1  0
 19 20  1  0
 20 21  1  0
 21 26  1  0
 21 22  2  0
 22 23  1  0
 23 24  1  0
 24 25  2  0
 24 26  1  0
 26 27  1  0
 27 28  1  0
 28 29  1  0
 29 30  1  0
 30 31  1  0
  1 32  1  0
  1 33  1  0
  1 34  1  0
  5 35  1  0
  9 36  1  0
 12 37  1  0
 12 38  1  0
 13 39  1  0
 13 40  1  0
 15 41  1  0
 15 42  1  0
 16 43  1  0
 16 44  1  0
 19 45  1  0
 19 46  1  0
 23 47  1  0
 27 48  1  0
 27 49  1  0
 28 50  1  0
 28 51  1  0
 29 52  1  0
 29 53  1  0
 31 54  1  0
 31 55  1  0
 31 56  1  0
M  END
> <Name>
ZINC24307541

> <reference>
BDB50024710

> <quality>
0.707

> <status>
decoy

$$$$
ZINC25206539
  SciTegic06061311253D

 47 49  0  0  1  0            999 V2000
    1.7764    2.8246   -0.9291 C   0  0
    1.3960    1.9824   -0.0006 C   0  0
   -0.0178    1.4608    0.0101 C   0  0
    0.0021   -0.0041    0.0020 N   0  0
    0.0237   -0.8356    1.0876 C   0  0
    0.0353   -2.0589    0.6390 N   0  0
    0.0226   -2.0577   -0.6462 N   0  0
   -0.0031   -0.8226   -1.0908 C   0  0
   -0.0350   -0.3170   -2.7784 S   0  0
   -0.0253   -1.9342   -3.5912 C   0  0
   -0.0501   -1.7452   -5.0861 C   0  0
   -0.0721   -0.6272   -5.5557 O   0  0
   -0.0478   -2.8186   -5.9012 N   0  0
   -0.0708   -2.6429   -7.2909 N   0  0
   -0.0684   -3.7162   -8.1060 C   0  0
   -0.0464   -4.8381   -7.6348 O   0  0
   -0.0925   -3.5324   -9.5600 C   0  0
   -0.0945   -4.4903  -10.5619 C   0  0
   -0.1206   -4.0392  -11.8580 C   0  0
   -0.1428   -2.7013  -12.0945 C   0  0
   -0.1348   -2.0175  -10.5015 S   0  0
    0.0320   -0.4150    2.5347 C   0  0  1  0  0  0
   -1.2159   -0.9759    3.2365 C   0  0
   -1.0285   -0.8010    4.7707 C   0  0
    0.7499   -1.2496    4.9463 S   0  0
    0.8503   -2.6373    5.2350 O   0  0
    1.3822   -0.3095    5.8040 O   0  0
    1.3104   -0.9555    3.2195 C   0  0
    1.0639    3.1511   -1.7009 H   0  0
    2.8084    3.2053   -0.9369 H   0  0
    2.1085    1.6560    0.7712 H   0  0
   -0.5326    1.8150    0.9154 H   0  0
   -0.5507    1.8245   -0.8808 H   0  0
   -0.9111   -2.5075   -3.2801 H   0  0
    0.8849   -2.4823   -3.3065 H   0  0
   -0.0291   -3.7681   -5.5024 H   0  0
   -0.0895   -1.6934   -7.6897 H   0  0
   -0.0760   -5.5651  -10.3285 H   0  0
   -0.1235   -4.7524  -12.6954 H   0  0
   -0.1614   -2.1787  -13.0623 H   0  0
    0.0221    0.6829    2.6026 H   0  0
   -2.1065   -0.4204    2.9076 H   0  0
   -1.3274   -2.0439    2.9977 H   0  0
   -1.1820    0.2473    5.0665 H   0  0
   -1.6524   -1.5167    5.3261 H   0  0
    2.1058   -0.1957    3.2094 H   0  0
    1.6219   -1.9056    2.7609 H   0  0
  1  2  2  0
  2  3  1  0
  3  4  1  0
  4  8  1  0
  4  5  1  0
  5  6  2  0
  5 22  1  0
  6  7  1  0
  7  8  2  0
  8  9  1  0
  9 10  1  0
 10 11  1  0
 11 12  2  0
 11 13  1  0
 13 14  1  0
 14 15  1  0
 15 16  2  0
 15 17  1  0
 17 21  1  0
 17 18  2  0
 18 19  1  0
 19 20  2  0
 20 21  1  0
 22 28  1  0
 22 23  1  0
 23 24  1  0
 24 25  1  0
 25 26  2  0
 25 27  2  0
 25 28  1  0
  1 29  1  0
  1 30  1  0
  2 31  1  0
  3 32  1  0
  3 33  1  0
 10 34  1  0
 10 35  1  0
 13 36  1  0
 14 37  1  0
 18 38  1  0
 19 39  1  0
 20 40  1  0
 22 41  1  0
 23 42  1  0
 23 43  1  0
 24 44  1  0
 24 45  1  0
 28 46  1  0
 28 47  1  0
M  END
> <Name>
ZINC25206539

> <reference>
BDB50024710

> <quality>
0.699

> <status>
decoy

$$$$
ZINC09745539
  SciTegic06061311253D

 66 70  0  0  0  0            999 V2000
   -1.6913    4.0857  -11.1665 C   0  0
   -0.8066    5.0946  -10.9506 C   0  0
    0.0948    5.0246   -9.8702 C   0  0
    0.0943    3.9923   -9.0598 N   0  0
   -0.8017    2.9390   -9.2543 N   0  0
   -1.6923    2.9773  -10.2982 C   0  0
   -2.4043    1.8633  -10.2363 N   0  0
   -2.0027    1.1583   -9.2366 N   0  0
   -1.0336    1.7768   -8.6080 C   0  0
   -0.3047    1.2776   -7.3871 C   0  0
   -1.0209    1.7710   -6.1283 C   0  0
   -0.2920    1.2718   -4.9074 C   0  0
    0.7023    0.5886   -5.0318 O   0  0
   -0.7451    1.5845   -3.6772 N   0  0
   -0.0366    1.0992   -2.4903 C   0  0
   -0.7527    1.5927   -1.2315 C   0  0
   -0.0127    1.0858    0.0080 C   0  0
   -2.1446    1.2151    1.1770 C   0  0
   -2.5685    1.2926    2.6652 C   0  0
   -1.3364    0.7238    3.4057 C   0  0
   -0.1615    0.9000    2.4259 C   0  0
    0.9963    6.0627   -9.6596 N   0  0
    0.2981    7.3480   -9.5308 C   0  0
    1.3239    8.4813   -9.4515 C   0  0
    2.2413    8.2479   -8.2491 C   0  0  1  0  0  0
    2.9162    6.8804   -8.3767 C   0  0
    1.8415    5.7962   -8.4889 C   0  0
    3.2441    9.2753   -8.2044 O   0  0
    2.7186   10.2652   -7.2874 C   0  0
    1.9984    9.3761   -6.2428 C   0  0
    1.4732    8.2955   -7.0405 O   0  0
   -0.7146    1.5559    1.2401 N   0  3
   -2.3973    4.1344  -12.0086 H   0  0
   -0.7944    5.9671  -11.6204 H   0  0
   -0.2902    0.1777   -7.3927 H   0  0
    0.7274    1.6580   -7.3937 H   0  0
   -2.0530    1.3906   -6.1194 H   0  0
   -1.0354    2.8709   -6.1218 H   0  0
   -1.5895    2.1647   -3.5715 H   0  0
   -0.0222   -0.0007   -2.4959 H   0  0
    0.9955    1.4795   -2.4970 H   0  0
   -0.7671    2.6926   -1.2250 H   0  0
   -1.7848    1.2124   -1.2225 H   0  0
    1.0173    1.4720    0.0044 H   0  0
    0.0097   -0.0139   -0.0029 H   0  0
   -2.6916    1.9635    0.5848 H   0  0
   -2.2789    0.1921    0.7956 H   0  0
   -3.4477    0.6566    2.8456 H   0  0
   -2.7393    2.3389    2.9587 H   0  0
   -1.4868   -0.3438    3.6241 H   0  0
   -1.1499    1.2999    4.3240 H   0  0
    0.6118    1.5369    2.8802 H   0  0
    0.2495   -0.0831    2.1528 H   0  0
   -0.3507    7.5021  -10.4056 H   0  0
   -0.3140    7.3440   -8.6168 H   0  0
    1.9244    8.4985  -10.3730 H   0  0
    0.8024    9.4426   -9.3334 H   0  0
    3.5362    6.6913   -7.4880 H   0  0
    3.5480    6.8651   -9.2771 H   0  0
    2.3234    4.8135   -8.5993 H   0  0
    1.2214    5.8001   -7.5804 H   0  0
    3.5376   10.8244   -6.8114 H   0  0
    1.9938   10.9181   -7.7957 H   0  0
    1.1784    9.9353   -5.7686 H   0  0
    2.7218    8.9931   -5.5079 H   0  0
   -0.5872    2.5763    1.2991 H   0  0
  1  6  1  0
  1  2  2  0
  2  3  1  0
  3  4  2  0
  3 22  1  0
  4  5  1  0
  5  9  1  0
  5  6  1  0
  6  7  2  0
  7  8  1  0
  8  9  2  0
  9 10  1  0
 10 11  1  0
 11 12  1  0
 12 13  2  0
 12 14  1  0
 14 15  1  0
 15 16  1  0
 16 17  1  0
 17 32  1  0
 18 19  1  0
 18 32  1  0
 19 20  1  0
 20 21  1  0
 21 32  1  0
 22 27  1  0
 22 23  1  0
 23 24  1  0
 24 25  1  0
 25 31  1  0
 25 26  1  0
 25 28  1  0
 26 27  1  0
 28 29  1  0
 29 30  1  0
 30 31  1  0
  1 33  1  0
  2 34  1  0
 10 35  1  0
 10 36  1  0
 11 37  1  0
 11 38  1  0
 14 39  1  0
 15 40  1  0
 15 41  1  0
 16 42  1  0
 16 43  1  0
 17 44  1  0
 17 45  1  0
 18 46  1  0
 18 47  1  0
 19 48  1  0
 19 49  1  0
 20 50  1  0
 20 51  1  0
 21 52  1  0
 21 53  1  0
 23 54  1  0
 23 55  1  0
 24 56  1  0
 24 57  1  0
 26 58  1  0
 26 59  1  0
 27 60  1  0
 27 61  1  0
 29 62  1  0
 29 63  1  0
 30 64  1  0
 30 65  1  0
 32 66  1  0
M  CHG  1  32   1
M  END
> <Name>
ZINC09745539

> <reference>
BDB50024710

> <quality>
0.698

> <status>
decoy

$$$$
ZINC29114053
  SciTegic06061311253D

 49 51  0  0  0  0            999 V2000
    4.1718    9.3763    9.4804 C   0  0
    3.3136    8.4925   10.2047 O   0  0
    2.9718    8.9563   11.5124 C   0  0
    2.0552    7.9368   12.1916 C   0  0
    2.7881    6.6861   12.4033 N   0  0
    3.4683    6.5122   13.5518 C   0  0
    3.4716    7.3870   14.4019 O   0  0
    4.1788    5.3100   13.7657 C   0  0
    4.1437    4.3642   12.7847 C   0  0
    3.3994    4.6421   11.6126 C   0  0
    2.7687    5.7881   11.4859 N   0  0
    3.3365    3.6423   10.5254 C   0  0
    3.9232    2.5836   10.6385 O   0  0
    2.6287    3.9045    9.4089 N   0  0
    2.5696    2.9656    8.3879 C   0  0
    1.9436    3.0317    7.2272 N   0  0
    1.9899    2.0291    6.3630 C   0  0
    2.7089    0.9087    6.6734 C   0  0
    3.3263    1.3491    8.2927 S   0  0
    1.2733    2.1237    5.0677 C   0  0
    0.5416    3.2688    4.7567 C   0  0
   -0.1242    3.3543    3.5522 C   0  0
   -0.0662    2.3000    2.6485 C   0  0
    0.6583    1.1551    2.9587 C   0  0
    1.3300    1.0673    4.1597 C   0  0
   -0.7418    2.3886    1.4290 N   0  0
    0.1033    2.6680    0.0326 S   0  0
   -0.8848    2.7048   -0.9880 O   0  0
    1.1210    1.6764    0.0202 O   0  0
    0.8361    4.3127    0.2523 C   0  0
    5.0875    9.5105   10.0749 H   0  0
    3.6604   10.3473    9.4051 H   0  0
    4.4089    8.9811    8.4816 H   0  0
    2.4513    9.9223   11.4357 H   0  0
    3.8877    9.0797   12.1089 H   0  0
    1.7202    8.3335   13.1613 H   0  0
    1.1810    7.7449   11.5522 H   0  0
    4.7429    5.1424   14.6951 H   0  0
    4.6793    3.4104   12.9005 H   0  0
    2.1316    4.8015    9.3131 H   0  0
    2.8646   -0.0099    6.0887 H   0  0
    0.4954    4.1035    5.4716 H   0  0
   -0.7017    4.2577    3.3064 H   0  0
    0.6958    0.3184    2.2456 H   0  0
    1.9101    0.1645    4.4012 H   0  0
   -1.7656    2.2801    1.3984 H   0  0
    1.5320    4.3357    1.1039 H   0  0
    0.0643    5.0882    0.3662 H   0  0
    1.4123    4.5472   -0.6549 H   0  0
  1  2  1  0
  2  3  1  0
  3  4  1  0
  4  5  1  0
  5 11  1  0
  5  6  1  0
  6  7  2  0
  6  8  1  0
  8  9  2  0
  9 10  1  0
 10 11  2  0
 10 12  1  0
 12 13  2  0
 12 14  1  0
 14 15  1  0
 15 19  1  0
 15 16  2  0
 16 17  1  0
 17 18  2  0
 17 20  1  0
 18 19  1  0
 20 25  2  0
 20 21  1  0
 21 22  2  0
 22 23  1  0
 23 24  2  0
 23 26  1  0
 24 25  1  0
 26 27  1  0
 27 28  2  0
 27 29  2  0
 27 30  1  0
  1 31  1  0
  1 32  1  0
  1 33  1  0
  3 34  1  0
  3 35  1  0
  4 36  1  0
  4 37  1  0
  8 38  1  0
  9 39  1  0
 14 40  1  0
 18 41  1  0
 21 42  1  0
 22 43  1  0
 24 44  1  0
 25 45  1  0
 26 46  1  0
 30 47  1  0
 30 48  1  0
 30 49  1  0
M  END
> <Name>
ZINC29114053

> <reference>
BDB50024710

> <quality>
0.698

> <status>
decoy

$$$$
ZINC08440409
  SciTegic06061311253D

 44 46  0  0  0  0            999 V2000
   -6.1407    4.4147   -8.4214 C   0  0
   -5.4409    3.3916   -9.1324 O   0  0
   -4.1612    3.1474   -8.7582 C   0  0
   -3.4123    2.1718   -9.4044 C   0  0
   -2.1040    1.9555   -8.9800 C   0  0
   -1.6181    2.6929   -7.9835 N   0  0
   -2.3598    3.6117   -7.3996 C   0  0
   -3.6031    3.8418   -7.7706 N   0  0
   -1.3172    0.9909   -9.5897 N   0  5
    0.2396    0.7486   -9.0797 S   0  0
    0.8504    2.0301   -9.0167 O   0  0
    0.7661   -0.3083   -9.8703 O   0  0
    0.1583    0.1476   -7.4253 C   0  0
    0.0859   -1.2129   -7.1883 C   0  0
    0.0230   -1.6872   -5.8928 C   0  0
    0.0320   -0.7962   -4.8274 C   0  0
    0.0990    0.5699   -5.0691 C   0  0
    0.1675    1.0374   -6.3668 C   0  0
   -0.0320   -1.2732   -3.5145 N   0  0
    0.5746   -2.4315   -3.1880 C   0  0
    1.1058   -3.1043   -4.0510 O   0  0
    0.5943   -2.8824   -1.7876 C   0  0
    1.1737   -4.0391   -1.3069 C   0  0
    0.9668   -4.0738    0.0741 C   0  0
    0.2935   -3.0034    0.4248 N   0  0
    0.0397   -2.2359   -0.7187 N   0  5
    1.3921   -5.0541    0.9153 O   0  0
    1.0771   -4.9019    2.3008 C   0  0
    1.8904   -5.0560   -2.1090 N   0  0
    1.2800   -5.9948   -2.5880 O   0  0
    3.0896   -4.9512   -2.2941 O   0  0
   -5.5447    5.3324   -8.5335 H   0  0
   -6.1181    4.1250   -7.3605 H   0  0
   -7.1708    4.5542   -8.7813 H   0  0
   -3.8419    1.5854  -10.2300 H   0  0
   -1.9289    4.2038   -6.5788 H   0  0
    0.0784   -1.9180   -8.0325 H   0  0
   -0.0342   -2.7695   -5.7049 H   0  0
    0.0975    1.2786   -4.2279 H   0  0
    0.2294    2.1188   -6.5586 H   0  0
   -0.5428   -0.7393   -2.7969 H   0  0
   -0.0179   -4.8163    2.3614 H   0  0
    1.5085   -3.9391    2.6120 H   0  0
    1.4533   -5.7323    2.9164 H   0  0
  1  2  1  0
  2  3  1  0
  3  8  2  0
  3  4  1  0
  4  5  2  0
  5  6  1  0
  5  9  1  0
  6  7  2  0
  7  8  1  0
  9 10  1  0
 10 11  2  0
 10 12  2  0
 10 13  1  0
 13 18  2  0
 13 14  1  0
 14 15  2  0
 15 16  1  0
 16 17  2  0
 16 19  1  0
 17 18  1  0
 19 20  1  0
 20 21  2  0
 20 22  1  0
 22 26  1  0
 22 23  2  0
 23 24  1  0
 23 29  1  0
 24 25  2  0
 24 27  1  0
 25 26  1  0
 27 28  1  0
 29 30  2  0
 29 31  2  0
  1 32  1  0
  1 33  1  0
  1 34  1  0
  4 35  1  0
  7 36  1  0
 14 37  1  0
 15 38  1  0
 17 39  1  0
 18 40  1  0
 19 41  1  0
 28 42  1  0
 28 43  1  0
 28 44  1  0
M  CHG  2   9  -1  26  -1
M  END
> <Name>
ZINC08440409

> <reference>
BDB50024710

> <quality>
0.696

> <status>
decoy

$$$$
ZINC20994414
  SciTegic06061311253D

 53 55  0  0  1  0            999 V2000
   -1.2989    2.3669    0.0211 C   0  0
   -0.0204    1.6518    0.0111 N   0  0
    1.2382    2.4014    0.0031 C   0  0
    1.5929    2.7725   -1.4138 C   0  0
    0.8660    2.4431   -2.3270 O   0  0
    2.7180    3.4703   -1.6661 N   0  0
    3.0628    3.8310   -3.0435 C   0  0
    4.3773    4.6140   -3.0518 C   0  0
    4.7320    4.9851   -4.4687 C   0  0
    5.5088    4.1326   -5.2311 C   0  0
    5.8321    4.4658   -6.5332 C   0  0
    5.3869    5.6617   -7.0733 C   0  0
    4.6098    6.5224   -6.3040 C   0  0
    4.2846    6.1797   -5.0014 C   0  0
    4.1701    7.6970   -6.8297 O   0  0
    3.3767    8.5303   -5.9823 C   0  0
    5.7084    5.9934   -8.3524 O   0  0
    6.5092    5.0618   -9.0824 C   0  0
    0.0021   -0.0041    0.0020 S   0  0
   -1.2429   -0.4241   -0.5392 O   0  0
    1.2475   -0.3902   -0.5628 O   0  0
    0.0252   -0.5340    1.6823 C   0  0
    1.2347   -0.7303    2.3260 C   0  0
    1.2610   -1.1407    3.6447 C   0  0
    0.0719   -1.3669    4.3201 C   0  0
   -1.1472   -1.1744    3.6708 C   0  0
   -1.1636   -0.7571    2.3491 C   0  0
   -2.1276   -1.4661    4.5604 O   0  0
   -1.5710   -1.8290    5.7267 C   0  0
   -2.1831   -2.1517    6.7266 O   0  5
   -0.2285   -1.7804    5.6177 N   0  0
   -1.2627    3.0214   -0.8623 H   0  0
   -1.2501    3.0192    0.9055 H   0  0
   -2.1838    1.7135    0.0266 H   0  0
    2.0391    1.7799    0.4300 H   0  0
    1.1242    3.3160    0.6035 H   0  0
    3.3354    3.7500   -0.8905 H   0  0
    3.1774    2.9168   -3.6444 H   0  0
    2.2634    4.4535   -3.4718 H   0  0
    5.1783    3.9926   -2.6249 H   0  0
    4.2633    5.5286   -2.4514 H   0  0
    5.8704    3.1871   -4.8006 H   0  0
    6.4428    3.7816   -7.1406 H   0  0
    3.6704    6.8582   -4.3912 H   0  0
    3.9866    8.7336   -5.0897 H   0  0
    2.5144    7.9226   -5.6705 H   0  0
    3.0593    9.4604   -6.4765 H   0  0
    5.9578    4.1100   -9.0780 H   0  0
    7.4302    4.9209   -8.4976 H   0  0
    6.7272    5.3990  -10.1065 H   0  0
    2.1776   -0.5590    1.7860 H   0  0
    2.2230   -1.2876    4.1575 H   0  0
   -2.1222   -0.6038    1.8319 H   0  0
  1  2  1  0
  2  3  1  0
  2 19  1  0
  3  4  1  0
  4  5  2  0
  4  6  1  0
  6  7  1  0
  7  8  1  0
  8  9  1  0
  9 14  2  0
  9 10  1  0
 10 11  2  0
 11 12  1  0
 12 13  2  0
 12 17  1  0
 13 14  1  0
 13 15  1  0
 15 16  1  0
 17 18  1  0
 19 20  2  0
 19 21  2  0
 19 22  1  0
 22 27  1  0
 22 23  2  0
 23 24  1  0
 24 25  2  0
 25 31  1  0
 25 26  1  0
 26 27  2  0
 26 28  1  0
 28 29  1  0
 29 30  1  0
 29 31  2  0
  1 32  1  0
  1 33  1  0
  1 34  1  0
  3 35  1  0
  3 36  1  0
  6 37  1  0
  7 38  1  0
  7 39  1  0
  8 40  1  0
  8 41  1  0
 10 42  1  0
 11 43  1  0
 14 44  1  0
 16 45  1  0
 16 46  1  0
 16 47  1  0
 18 48  1  0
 18 49  1  0
 18 50  1  0
 23 51  1  0
 24 52  1  0
 27 53  1  0
M  CHG  1  30  -1
M  END
> <Name>
ZINC20994414

> <reference>
BDB50024710

> <quality>
0.695

> <status>
decoy

$$$$
ZINC23144121
  SciTegic06061311253D

 50 52  0  0  0  0            999 V2000
    1.3383    7.4096    1.3507 C   0  0
    1.5876    6.0069    1.2391 O   0  0
    2.2076    5.6228    0.0102 C   0  0
    2.4257    4.1084    0.0005 C   0  0
    1.1601    3.4449    0.0090 O   0  0
    1.1759    2.0860    0.0020 C   0  0
   -0.0167    1.3772    0.0096 C   0  0
    0.0021   -0.0041    0.0020 C   0  0
    1.2080   -0.6802   -0.0131 C   0  0
    2.3980    0.0239   -0.0207 C   0  0
    2.3846    1.4052   -0.0127 C   0  0
    1.2285   -2.4421   -0.0222 S   0  0
    2.4838   -2.8364    0.5145 O   0  0
   -0.0066   -2.8655    0.5386 O   0  0
    1.2188   -2.9237   -1.6066 N   0  5
    2.2568   -2.5348   -2.4633 N   0  0
    2.9548   -3.4664   -3.1426 C   0  0
    2.6834   -4.6450   -3.0117 O   0  0
    4.0452   -3.0579   -4.0425 C   0  0
    4.7620   -3.9979   -4.7393 C   0  0
    5.9062   -2.9522   -5.6299 S   0  0
    5.3252   -1.3861   -4.9951 C   0  0
    4.3480   -1.7669   -4.1973 N   0  0
    5.7789   -0.1077   -5.2730 N   0  0
    4.6875    0.7420   -5.7712 C   0  0
    5.2182    2.1583   -6.0084 C   0  0
    6.3198    2.1029   -6.9187 O   0  0
    7.4012    1.2843   -6.4648 C   0  0
    6.8926   -0.1408   -6.2322 C   0  0
    0.6953    7.7003    0.5068 H   0  0
    2.3034    7.9272    1.2472 H   0  0
    0.8614    7.6603    2.3097 H   0  0
    3.1773    6.1328   -0.0877 H   0  0
    1.5585    5.9046   -0.8319 H   0  0
    2.9823    3.8238   -0.9046 H   0  0
    2.9994    3.8137    0.8916 H   0  0
   -0.9764    1.9146    0.0217 H   0  0
   -0.9432   -0.5666    0.0080 H   0  0
    3.3561   -0.5163   -0.0331 H   0  0
    3.3316    1.9649   -0.0180 H   0  0
    2.4866   -1.5369   -2.5740 H   0  0
    4.6605   -5.0932   -4.7476 H   0  0
    3.8771    0.7741   -5.0281 H   0  0
    4.3042    0.3310   -6.7168 H   0  0
    4.4200    2.7827   -6.4361 H   0  0
    5.5528    2.5908   -5.0540 H   0  0
    8.1958    1.2704   -7.2253 H   0  0
    7.7997    1.6894   -5.5229 H   0  0
    7.7074   -0.7594   -5.8279 H   0  0
    6.5453   -0.5660   -7.1854 H   0  0
  1  2  1  0
  2  3  1  0
  3  4  1  0
  4  5  1  0
  5  6  1  0
  6 11  2  0
  6  7  1  0
  7  8  2  0
  8  9  1  0
  9 10  2  0
  9 12  1  0
 10 11  1  0
 12 13  2  0
 12 14  2  0
 12 15  1  0
 15 16  1  0
 16 17  1  0
 17 18  2  0
 17 19  1  0
 19 23  1  0
 19 20  2  0
 20 21  1  0
 21 22  1  0
 22 23  2  0
 22 24  1  0
 24 29  1  0
 24 25  1  0
 25 26  1  0
 26 27  1  0
 27 28  1  0
 28 29  1  0
  1 30  1  0
  1 31  1  0
  1 32  1  0
  3 33  1  0
  3 34  1  0
  4 35  1  0
  4 36  1  0
  7 37  1  0
  8 38  1  0
 10 39  1  0
 11 40  1  0
 16 41  1  0
 20 42  1  0
 25 43  1  0
 25 44  1  0
 26 45  1  0
 26 46  1  0
 28 47  1  0
 28 48  1  0
 29 49  1  0
 29 50  1  0
M  CHG  1  15  -1
M  END
> <Name>
ZINC23144121

> <reference>
BDB50024710

> <quality>
0.691

> <status>
decoy

$$$$
ZINC15824213
  SciTegic06061311253D

 51 54  0  0  0  0            999 V2000
   11.2609   -0.0654   -7.3308 C   0  0
   10.9799   -1.4934   -7.1636 N   0  0
   10.9900   -2.2038   -6.0110 C   0  0
   10.6885   -3.4464   -6.3200 N   0  0
   10.4823   -3.5585   -7.5826 N   0  0
   10.6428   -2.4201   -8.1656 N   0  0
   11.3470   -1.5824   -4.4013 S   0  0
   11.1603   -3.0987   -3.4306 C   0  0
   11.4267   -2.8008   -1.9775 C   0  0
   10.3826   -2.4187   -1.1583 C   0  0
   10.6376   -2.1458    0.1812 C   0  0
   11.9506   -2.2659    0.6428 C   0  0
   12.9396   -2.6589   -0.2418 C   0  0
   12.6538   -2.9083   -1.5061 N   0  0
   12.2517   -2.0049    1.9432 O   0  0
   13.6182   -2.1514    2.3348 C   0  0
    9.6369   -1.7668    1.0178 O   0  0
    8.3264   -1.6645    0.4573 C   0  0
    7.3548   -1.2355    1.5264 C   0  0
    7.7461   -1.0368    2.6570 O   0  0
    6.0511   -1.0725    1.2260 N   0  0
    5.1066   -0.6554    2.2653 C   0  0
    3.7246   -0.5476    1.6742 C   0  0
    2.8855   -1.6464    1.6768 C   0  0
    1.6171   -1.5526    1.1353 C   0  0
    1.1834   -0.3557    0.5885 C   0  0
    2.0284    0.7513    0.5864 C   0  0
    3.2983    0.6500    1.1309 C   0  0
    1.3764    1.7966   -0.0014 O   0  0
   -0.0175    1.4357    0.0099 C   0  0
    0.0021   -0.0041    0.0020 O   0  0
   10.3591    0.2808   -7.8570 H   0  0
   12.0537   -0.0803   -8.0932 H   0  0
   11.5098    0.5126   -6.4286 H   0  0
   10.1358   -3.4828   -3.5438 H   0  0
   11.8766   -3.8538   -3.7867 H   0  0
    9.3624   -2.3313   -1.5602 H   0  0
   13.9755   -2.7646    0.1126 H   0  0
   14.2001   -1.4836    1.6826 H   0  0
   13.8995   -3.1872    2.0941 H   0  0
   13.7829   -1.9236    3.3983 H   0  0
    8.0207   -2.6420    0.0560 H   0  0
    8.3311   -0.9206   -0.3530 H   0  0
    5.7188   -1.2412    0.2658 H   0  0
    5.1011   -1.3990    3.0758 H   0  0
    5.4101    0.3226    2.6670 H   0  0
    3.2280   -2.5974    2.1107 H   0  0
    0.9518   -2.4286    1.1385 H   0  0
    3.9677    1.5229    1.1309 H   0  0
   -0.5166    1.8135   -0.8946 H   0  0
   -0.4984    1.8039    0.9282 H   0  0
  1  2  1  0
  2  6  1  0
  2  3  1  0
  3  4  2  0
  3  7  1  0
  4  5  1  0
  5  6  2  0
  7  8  1  0
  8  9  1  0
  9 14  2  0
  9 10  1  0
 10 11  2  0
 11 12  1  0
 11 17  1  0
 12 13  2  0
 12 15  1  0
 13 14  1  0
 15 16  1  0
 17 18  1  0
 18 19  1  0
 19 20  2  0
 19 21  1  0
 21 22  1  0
 22 23  1  0
 23 28  2  0
 23 24  1  0
 24 25  2  0
 25 26  1  0
 26 31  1  0
 26 27  2  0
 27 28  1  0
 27 29  1  0
 29 30  1  0
 30 31  1  0
  1 32  1  0
  1 33  1  0
  1 34  1  0
  8 35  1  0
  8 36  1  0
 10 37  1  0
 13 38  1  0
 16 39  1  0
 16 40  1  0
 16 41  1  0
 18 42  1  0
 18 43  1  0
 21 44  1  0
 22 45  1  0
 22 46  1  0
 24 47  1  0
 25 48  1  0
 28 49  1  0
 30 50  1  0
 30 51  1  0
M  END
> <Name>
ZINC15824213

> <reference>
BDB50024710

> <quality>
0.689

> <status>
decoy

$$$$
ZINC20985008
  SciTegic06061311253D

 52 55  0  0  1  0            999 V2000
  -10.0931   -1.0168    2.7282 C   0  0
   -8.7919   -1.3466    3.1719 C   0  0
   -7.9318   -0.8258    2.2784 C   0  0
   -8.6388   -0.1966    1.3256 O   0  0
   -9.9503   -0.3141    1.5901 C   0  0
   -6.4293   -0.9258    2.3397 C   0  0
   -5.9907   -2.1300    1.6300 N   0  0
   -5.9646   -3.4203    2.3234 C   0  0
   -4.6441   -3.5645    3.0826 C   0  0
   -4.6178   -4.8583    3.7780 N   0  0
   -5.6319   -4.9056    4.8413 C   0  0
   -5.6104   -6.2882    5.4984 C   0  0
   -4.2951   -6.5553    5.9924 O   0  0
   -3.2825   -6.5179    4.9832 C   0  0
   -3.2804   -5.1376    4.3208 C   0  0
   -5.5246   -2.0328    0.0439 S   0  0
   -6.1572   -0.8804   -0.4954 O   0  0
   -5.7010   -3.3289   -0.5114 O   0  0
   -3.7925   -1.7100    0.0289 C   0  0
   -2.7598   -2.5918    0.0149 C   0  0
   -1.4685   -2.1128   -0.0009 C   0  0
   -1.2687   -0.7579    0.0101 C   0  0
   -2.9435   -0.1396    0.0288 S   0  0
    0.0021   -0.0041    0.0020 C   0  0
   -0.0171    1.4123    0.0098 C   0  0
    1.1747    2.0733    0.0020 C   0  0
    2.3589    1.3027   -0.0139 C   0  0
    3.4490    1.8517   -0.0214 O   0  0
    2.2769   -0.0408   -0.0204 N   0  0
    1.1466   -0.6497   -0.0128 N   0  0
  -11.0405   -1.2836    3.2194 H   0  0
   -8.5326   -1.9192    4.0746 H   0  0
  -10.7688    0.0949    0.9796 H   0  0
   -5.9830   -0.0388    1.8663 H   0  0
   -6.1070   -0.9822    3.3899 H   0  0
   -6.8029   -3.4720    3.0338 H   0  0
   -6.0553   -4.2343    1.5892 H   0  0
   -4.5521   -2.7518    3.8182 H   0  0
   -3.8054   -3.5133    2.3727 H   0  0
   -6.6267   -4.7203    4.4101 H   0  0
   -5.4087   -4.1374    5.5963 H   0  0
   -6.3269   -6.3095    6.3328 H   0  0
   -5.8857   -7.0526    4.7569 H   0  0
   -2.3002   -6.7062    5.4411 H   0  0
   -3.4892   -7.2877    4.2252 H   0  0
   -2.5425   -5.1235    3.5051 H   0  0
   -3.0189   -4.3733    5.0674 H   0  0
   -2.9521   -3.6749    0.0162 H   0  0
   -0.6140   -2.8052   -0.0220 H   0  0
   -0.9687    1.9640    0.0218 H   0  0
    1.2135    3.1726    0.0079 H   0  0
    3.1447   -0.5956   -0.0318 H   0  0
  1  5  2  0
  1  2  1  0
  2  3  2  0
  3  4  1  0
  3  6  1  0
  4  5  1  0
  6  7  1  0
  7  8  1  0
  7 16  1  0
  8  9  1  0
  9 10  1  0
 10 15  1  0
 10 11  1  0
 11 12  1  0
 12 13  1  0
 13 14  1  0
 14 15  1  0
 16 17  2  0
 16 18  2  0
 16 19  1  0
 19 23  1  0
 19 20  2  0
 20 21  1  0
 21 22  2  0
 22 23  1  0
 22 24  1  0
 24 30  2  0
 24 25  1  0
 25 26  2  0
 26 27  1  0
 27 28  2  0
 27 29  1  0
 29 30  1  0
  1 31  1  0
  2 32  1  0
  5 33  1  0
  6 34  1  0
  6 35  1  0
  8 36  1  0
  8 37  1  0
  9 38  1  0
  9 39  1  0
 11 40  1  0
 11 41  1  0
 12 42  1  0
 12 43  1  0
 14 44  1  0
 14 45  1  0
 15 46  1  0
 15 47  1  0
 20 48  1  0
 21 49  1  0
 25 50  1  0
 26 51  1  0
 29 52  1  0
M  END
> <Name>
ZINC20985008

> <reference>
BDB50024710

> <quality>
0.687

> <status>
decoy

$$$$
ZINC19647356
  SciTegic06061311253D

 64 66  0  0  1  0            999 V2000
   -1.8465    5.0738   -2.1610 C   0  0
   -1.4718    3.6062   -2.3771 C   0  0
   -0.9128    3.0556   -1.1352 N   0  0
   -0.7616    1.5973   -1.2272 C   0  0
   -0.0127    1.0858    0.0080 C   0  0
   -0.7086    1.5639    1.2123 N   0  0
   -1.0227    2.9981    1.3105 C   0  0
   -1.7318    3.4342    0.0240 C   0  0
   -1.0572    0.7011    2.2073 C   0  0
   -0.7740   -0.5864    2.0934 N   0  0
   -1.1028   -1.4716    3.0238 C   0  0
   -0.7884   -2.6362    2.8752 O   0  0
   -1.8641   -1.0642    4.2591 C   0  0  2  0  0  0
   -1.5544    0.4067    4.5701 C   0  0  2  0  0  0
   -1.7032    1.1668    3.3175 N   0  0
   -0.1427    0.5350    5.0816 C   0  0
    0.9176    0.4955    4.1958 C   0  0
    2.2178    0.6189    4.6618 C   0  0
    2.4547    0.7706    6.0228 C   0  0
    1.3861    0.8041    6.9108 C   0  0
    0.0886    0.6861    6.4360 C   0  0
    1.6127    0.9519    8.2436 O   0  0
    0.4672    0.9773    9.0975 C   0  0
    3.7296    0.8865    6.4848 O   0  0
    4.4053   -0.3231    6.8345 C   0  0
    3.2601    0.5851    3.7889 O   0  0
    2.9422    0.4268    2.4047 C   0  0
   -1.4403   -1.9260    5.4204 C   0  0
   -0.9416   -1.4200    6.3978 O   0  0
   -1.6167   -3.2556    5.3691 O   0  0
   -1.1849   -4.0229    6.5237 C   0  0
   -1.4646   -5.5077    6.2829 C   0  0
   -0.9495    5.6446   -1.8788 H   0  0
   -2.5950    5.1478   -1.3584 H   0  0
   -2.2652    5.4867   -3.0906 H   0  0
   -0.7233    3.5321   -3.1797 H   0  0
   -2.3694    3.0361   -2.6589 H   0  0
   -0.1913    1.3427   -2.1327 H   0  0
   -1.7551    1.1274   -1.2740 H   0  0
   -0.0001   -0.0141    0.0022 H   0  0
    1.0177    1.4707    0.0011 H   0  0
   -1.6836    3.1729    2.1723 H   0  0
   -0.0927    3.5731    1.4308 H   0  0
   -1.8714    4.5253    0.0343 H   0  0
   -2.7118    2.9387   -0.0400 H   0  0
   -2.9438   -1.1910    4.0913 H   0  0
   -2.2386    0.7920    5.3404 H   0  0
   -2.2759    2.0221    3.2796 H   0  0
    0.7298    0.3660    3.1197 H   0  0
   -0.7578    0.7128    7.1381 H   0  0
   -0.0721    0.0352    8.9195 H   0  0
   -0.1670    1.8018    8.7398 H   0  0
    0.7301    1.0994   10.1586 H   0  0
    4.3979   -0.9532    5.9329 H   0  0
    3.7828   -0.8161    7.5957 H   0  0
    5.4286   -0.1489    7.1986 H   0  0
    2.2725    1.2596    2.1440 H   0  0
    2.3664   -0.5070    2.3245 H   0  0
    3.8351    0.4086    1.7624 H   0  0
   -1.7347   -3.6869    7.4152 H   0  0
   -0.1063   -3.8742    6.6804 H   0  0
   -0.9146   -5.8458    5.3923 H   0  0
   -2.5429   -5.6580    6.1261 H   0  0
   -1.1377   -6.0896    7.1573 H   0  0
  1  2  1  0
  2  3  1  0
  3  8  1  0
  3  4  1  0
  4  5  1  0
  5  6  1  0
  6  7  1  0
  6  9  1  0
  7  8  1  0
  9 15  1  0
  9 10  2  0
 10 11  1  0
 11 12  2  0
 11 13  1  0
 13 14  1  0
 13 28  1  0
 14 15  1  0
 14 16  1  0
 16 21  2  0
 16 17  1  0
 17 18  2  0
 18 19  1  0
 18 26  1  0
 19 20  2  0
 19 24  1  0
 20 21  1  0
 20 22  1  0
 22 23  1  0
 24 25  1  0
 26 27  1  0
 28 29  2  0
 28 30  1  0
 30 31  1  0
 31 32  1  0
  1 33  1  0
  1 34  1  0
  1 35  1  0
  2 36  1  0
  2 37  1  0
  4 38  1  0
  4 39  1  0
  5 40  1  0
  5 41  1  0
  7 42  1  0
  7 43  1  0
  8 44  1  0
  8 45  1  0
 13 46  1  0
 14 47  1  0
 15 48  1  0
 17 49  1  0
 21 50  1  0
 23 51  1  0
 23 52  1  0
 23 53  1  0
 25 54  1  0
 25 55  1  0
 25 56  1  0
 27 57  1  0
 27 58  1  0
 27 59  1  0
 31 60  1  0
 31 61  1  0
 32 62  1  0
 32 63  1  0
 32 64  1  0
M  END
> <Name>
ZINC19647356

> <reference>
BDB50024710

> <quality>
0.680

> <status>
decoy

$$$$
ZINC22693115
  SciTegic06061311253D

 52 54  0  0  0  0            999 V2000
   -3.3258    9.7869    5.0458 C   0  0
   -2.3039    9.0773    4.1953 C   0  0
   -1.7086    7.9169    4.6580 C   0  0
   -0.7761    7.2599    3.8823 C   0  0
   -0.4252    7.7741    2.6332 C   0  0
   -1.0290    8.9444    2.1725 C   0  0
   -1.9646    9.5889    2.9557 C   0  0
   -2.6062   10.8307    2.4685 N   0  0
   -2.2255   11.3471    1.4332 O   0  0
   -3.5148   11.3360    3.1029 O   0  0
    0.5787    7.0774    1.7983 C   0  0
    0.8190    7.4783    0.6720 O   0  0
    1.2568    5.9510    2.3047 C   0  0
    1.0119    4.6896    1.7655 C   0  0
    1.7788    3.6220    2.1462 N   0  0
    1.5212    2.2959    1.5793 C   0  0
    2.4966    1.3038    2.1587 C   0  0
    2.1773    0.6172    3.3155 C   0  0
    3.0697   -0.2927    3.8487 C   0  0
    4.2870   -0.5172    3.2223 C   0  0
    4.6049    0.1730    2.0616 C   0  0
    3.7091    1.0818    1.5325 C   0  0
    5.1668   -1.4114    3.7450 O   0  0
    6.4006   -1.5916    3.0470 C   0  0
   -0.2853    4.4691    0.5936 S   0  5
    2.1612    6.0965    3.3320 N   0  3
    3.2506    6.8279    3.1364 C   0  0
    4.1790    6.9964    4.1432 C   0  0
    3.9650    6.3906    5.3723 C   0  0
    2.8127    5.6290    5.5466 C   0  0
    1.9198    5.5066    4.4947 C   0  0
    2.5646    5.0179    6.7349 O   0  5
   -4.2267    9.8513    4.4179 H   0  0
   -2.9388   10.8095    5.1659 H   0  0
   -3.5198    9.2948    6.0103 H   0  0
   -1.9796    7.5175    5.6465 H   0  0
   -0.3101    6.3328    4.2474 H   0  0
   -0.7598    9.3525    1.1871 H   0  0
    2.5371    3.7508    2.8313 H   0  0
    0.4946    1.9856    1.8238 H   0  0
    1.6427    2.3331    0.4867 H   0  0
    1.2119    0.7956    3.8117 H   0  0
    2.8153   -0.8387    4.7691 H   0  0
    5.5694   -0.0033    1.5630 H   0  0
    3.9607    1.6293    0.6122 H   0  0
    6.8737   -0.5999    2.9941 H   0  0
    6.1354   -1.8939    2.0232 H   0  0
    7.0587   -2.3292    3.5296 H   0  0
    3.4158    7.3059    2.1596 H   0  0
    5.0794    7.6048    3.9728 H   0  0
    4.6897    6.5092    6.1913 H   0  0
    1.0020    4.9145    4.6252 H   0  0
  1  2  1  0
  2  7  2  0
  2  3  1  0
  3  4  2  0
  4  5  1  0
  5  6  2  0
  5 11  1  0
  6  7  1  0
  7  8  1  0
  8  9  2  0
  8 10  2  0
 11 12  2  0
 11 13  1  0
 13 14  2  0
 13 26  1  0
 14 15  1  0
 14 25  1  0
 15 16  1  0
 16 17  1  0
 17 22  2  0
 17 18  1  0
 18 19  2  0
 19 20  1  0
 20 21  2  0
 20 23  1  0
 21 22  1  0
 23 24  1  0
 26 31  2  0
 26 27  1  0
 27 28  2  0
 28 29  1  0
 29 30  2  0
 30 31  1  0
 30 32  1  0
  1 33  1  0
  1 34  1  0
  1 35  1  0
  3 36  1  0
  4 37  1  0
  6 38  1  0
 15 39  1  0
 16 40  1  0
 16 41  1  0
 18 42  1  0
 19 43  1  0
 21 44  1  0
 22 45  1  0
 24 46  1  0
 24 47  1  0
 24 48  1  0
 27 49  1  0
 28 50  1  0
 29 51  1  0
 31 52  1  0
M  CHG  3  25  -1  26   1  32  -1
M  END
> <Name>
ZINC22693115

> <reference>
BDB50024710

> <quality>
0.678

> <status>
decoy

$$$$
ZINC00094660
  SciTegic06061311253D

 31 33  0  0  0  0            999 V2000
    3.8530    8.7081    0.0073 C   0  0
    4.5158    7.3292   -0.0061 C   0  0
    3.4918    6.2999   -0.0006 O   0  0
    3.9116    5.0188   -0.0110 C   0  0
    5.1014    4.7690   -0.0243 O   0  0
    2.9318    3.9249   -0.0063 C   0  0
    3.3477    2.6042   -0.0173 C   0  0
    2.4338    1.6166   -0.0129 N   0  0
    1.0795    1.8933    0.0019 C   0  0
   -0.0126    1.0758    0.0080 C   0  0
   -1.1525    1.8817    0.0171 C   0  0
   -0.7775    3.1357    0.0263 N   0  0
    0.6226    3.1787    0.0132 N   0  0
    1.4924    4.2096    0.0097 C   0  0
    1.0897    5.3579    0.0194 O   0  0
   -2.5770    1.3899    0.0203 C   0  0  2  0  0  0
   -3.4457    1.7334   -1.1914 C   0  0
   -3.6855    2.4369    0.1469 C   0  0
    3.2359    8.8106    0.9121 H   0  0
    3.2176    8.8193   -0.8837 H   0  0
    4.6283    9.4884    0.0031 H   0  0
    5.1324    7.2274   -0.9113 H   0  0
    5.1513    7.2179    0.8849 H   0  0
    4.4209    2.3633   -0.0296 H   0  0
    2.7492    0.6361   -0.0207 H   0  0
    0.0023   -0.0241    0.0061 H   0  0
   -2.3168    0.4637    0.5537 H   0  0
   -4.2021    0.9571   -1.3790 H   0  0
   -2.9116    2.3850   -1.8986 H   0  0
   -3.2782    3.4587    0.1430 H   0  0
   -4.5674    2.0299    0.6632 H   0  0
  1  2  1  0
  2  3  1  0
  3  4  1  0
  4  5  2  0
  4  6  1  0
  6 14  1  0
  6  7  2  0
  7  8  1  0
  8  9  1  0
  9 13  1  0
  9 10  2  0
 10 11  1  0
 11 12  2  0
 11 16  1  0
 12 13  1  0
 13 14  1  0
 14 15  2  0
 16 18  1  0
 16 17  1  0
 17 18  1  0
  1 19  1  0
  1 20  1  0
  1 21  1  0
  2 22  1  0
  2 23  1  0
  7 24  1  0
  8 25  1  0
 10 26  1  0
 16 27  1  0
 17 28  1  0
 17 29  1  0
 18 30  1  0
 18 31  1  0
M  END
> <Name>
ZINC00094660

> <reference>
BDB50279824

> <quality>
0.824

> <status>
decoy

$$$$
ZINC26882398
  SciTegic06061311253D

 38 39  0  0  1  0            999 V2000
    3.0801   -8.1547   -3.7759 C   0  0
    2.2787   -7.7832   -2.6071 N   0  0
    1.9069   -8.8004   -1.6206 C   0  0
    1.8836   -6.5056   -2.4394 C   0  0
    2.1914   -5.6635   -3.2562 O   0  0
    1.0593   -6.1235   -1.2372 C   0  0
    0.7600   -4.6861   -1.2855 N   0  0
   -0.1132   -4.3682   -2.4232 C   0  0
    0.1657   -4.2294   -0.0221 C   0  0
    0.0995   -2.7238   -0.0134 C   0  0
   -1.1262   -2.0871    0.0017 C   0  0
   -1.1621   -0.6880    0.0095 C   0  0
   -2.2294   -0.0952    0.0224 O   0  0
    0.0021   -0.0041    0.0020 N   0  0
   -0.0164    1.3576    0.0095 C   0  0
    1.1361    2.0644    0.0023 C   0  0
    2.3701    1.3993   -0.0136 C   0  0
    2.3994    0.0368   -0.0203 C   0  0
    1.1896   -0.6812   -0.0125 C   0  0
    1.2161   -2.0127   -0.0199 N   0  0
    2.5081   -8.9558   -4.2668 H   0  0
    3.9874   -8.6172   -3.3601 H   0  0
    3.3052   -7.3193   -4.4552 H   0  0
    2.8617   -9.2368   -1.2921 H   0  0
    1.3824   -9.5754   -2.1988 H   0  0
    1.3057   -8.4199   -0.7817 H   0  0
    1.6213   -6.3496   -0.3190 H   0  0
    0.1186   -6.6937   -1.2412 H   0  0
   -1.0503   -4.9352   -2.3214 H   0  0
    0.3908   -4.6698   -3.3533 H   0  0
   -0.3287   -3.2898   -2.4467 H   0  0
   -0.8497   -4.6411    0.0756 H   0  0
    0.7835   -4.5734    0.8205 H   0  0
   -2.0589   -2.6702    0.0075 H   0  0
   -0.9798    1.8884    0.0216 H   0  0
    1.1055    3.1640    0.0089 H   0  0
    3.3084    1.9733   -0.0206 H   0  0
    3.3611   -0.4971   -0.0317 H   0  0
  1  2  1  0
  2  3  1  0
  2  4  1  0
  4  5  2  0
  4  6  1  0
  6  7  1  0
  7  8  1  0
  7  9  1  0
  9 10  1  0
 10 20  1  0
 10 11  2  0
 11 12  1  0
 12 13  2  0
 12 14  1  0
 14 19  1  0
 14 15  1  0
 15 16  2  0
 16 17  1  0
 17 18  2  0
 18 19  1  0
 19 20  2  0
  1 21  1  0
  1 22  1  0
  1 23  1  0
  3 24  1  0
  3 25  1  0
  3 26  1  0
  6 27  1  0
  6 28  1  0
  8 29  1  0
  8 30  1  0
  8 31  1  0
  9 32  1  0
  9 33  1  0
 11 34  1  0
 15 35  1  0
 16 36  1  0
 17 37  1  0
 18 38  1  0
M  END
> <Name>
ZINC26882398

> <reference>
BDB50279824

> <quality>
0.791

> <status>
decoy

$$$$
ZINC31320219
  SciTegic06061311253D

 30 31  0  0  1  0            999 V2000
    1.3972   -0.2129   -0.8355 C   0  0
    1.2927    0.7810    0.3747 C   0  0  2  0  0  0
    0.8733   -0.1964    1.5150 C   0  0
   -0.0112   -1.2547    0.8170 C   0  0  1  0  0  0
   -0.0430   -0.8171   -0.6793 C   0  0  1  0  0  0
   -0.9034    0.4833   -0.6875 C   0  0
   -0.0189    1.5416    0.0105 C   0  0  1  0  0  0
   -0.8320    2.1547    1.5117 S   0  0
   -1.4483    1.0563    2.1697 O   0  0
    0.0951    2.9582    2.2288 O   0  0
   -2.1337    3.2316    0.8510 C   0  0
   -2.9281    3.8404    2.0083 C   0  0
   -4.2219    4.9107    1.3516 Cl  0  0
    0.6035   -2.6241    0.9509 C   0  0
    0.9857   -3.2132   -0.0317 O   0  0
    0.7621   -3.3549    2.5176 Cl  0  0
    2.1653   -0.9777   -0.6483 H   0  0
    1.4923    0.3352   -1.7845 H   0  0
    2.1579    1.4213    0.6014 H   0  0
    0.2890    0.3399    2.2772 H   0  0
    1.7638   -0.6754    1.9481 H   0  0
   -1.0178   -1.3140    1.2567 H   0  0
   -0.3632   -1.5950   -1.3880 H   0  0
   -1.8291    0.3281   -0.1140 H   0  0
   -1.1132    0.7905   -1.7227 H   0  0
    0.1691    2.4168   -0.6288 H   0  0
   -1.6770    4.0368    0.2568 H   0  0
   -2.8094    2.6430    0.2131 H   0  0
   -2.2542    4.4305    2.6468 H   0  0
   -3.3854    3.0357    2.6027 H   0  0
  1  5  1  0
  1  2  1  0
  2  7  1  0
  2  3  1  0
  3  4  1  0
  4  5  1  0
  4 14  1  0
  5  6  1  0
  6  7  1  0
  7  8  1  0
  8  9  2  0
  8 10  2  0
  8 11  1  0
 11 12  1  0
 12 13  1  0
 14 15  2  0
 14 16  1  0
  1 17  1  0
  1 18  1  0
  2 19  1  0
  3 20  1  0
  3 21  1  0
  4 22  1  0
  5 23  1  0
  6 24  1  0
  6 25  1  0
  7 26  1  0
 11 27  1  0
 11 28  1  0
 12 29  1  0
 12 30  1  0
M  END
> <Name>
ZINC31320219

> <reference>
BDB50279824

> <quality>
0.786

> <status>
decoy

$$$$
ZINC08249352
  SciTegic06061311253D

 34 36  0  0  0  0            999 V2000
    1.0631    9.4877   -2.7565 C   0  0
   -0.2401    8.6925   -2.8686 C   0  0
    1.0191    8.0239   -2.3134 C   0  0  2  0  0  0
    1.0618    7.7512   -0.8746 N   0  0
    1.2000    6.5202   -0.4445 C   0  0
    1.2632    6.0467    0.8448 N   0  5
    1.4127    4.6914    1.0312 N   0  0
    1.4917    3.8822    0.0087 C   0  0
    1.3638    5.0038   -1.3745 S   0  0
    1.6835    2.1307   -0.0026 S   0  0
   -0.0184    1.5028    0.0103 C   0  0
    0.0021   -0.0041    0.0020 C   0  0
    1.0605   -0.5961   -0.0113 O   0  0
   -1.1558   -0.6938    0.0094 N   0  0
   -2.4521    0.0024    0.0317 C   0  0
   -3.3267   -0.5773   -1.0915 C   0  0
   -3.3689   -2.0008   -0.9657 O   0  0
   -2.0986   -2.6394   -1.1148 C   0  0
   -1.1611   -2.1653    0.0015 C   0  0
    1.5522    9.5987   -3.7355 H   0  0
    1.0450   10.1706   -1.8943 H   0  0
   -0.4361    8.3832   -3.9058 H   0  0
   -0.9435    8.9565   -2.0652 H   0  0
    1.5928    7.1185   -2.5605 H   0  0
   -0.5513    1.8665   -0.8806 H   0  0
   -0.5332    1.8570    0.9156 H   0  0
   -2.2987    1.0783   -0.1383 H   0  0
   -2.9429   -0.1599    1.0027 H   0  0
   -4.3458   -0.1713   -1.0104 H   0  0
   -2.8985   -0.3079   -2.0682 H   0  0
   -2.2255   -3.7300   -1.0485 H   0  0
   -1.6668   -2.3773   -2.0920 H   0  0
   -0.1437   -2.5377   -0.1887 H   0  0
   -1.5230   -2.5399    0.9704 H   0  0
  1  3  1  0
  1  2  1  0
  2  3  1  0
  3  4  1  0
  4  5  2  0
  5  9  1  0
  5  6  1  0
  6  7  1  0
  7  8  2  0
  8  9  1  0
  8 10  1  0
 10 11  1  0
 11 12  1  0
 12 13  2  0
 12 14  1  0
 14 19  1  0
 14 15  1  0
 15 16  1  0
 16 17  1  0
 17 18  1  0
 18 19  1  0
  1 20  1  0
  1 21  1  0
  2 22  1  0
  2 23  1  0
  3 24  1  0
 11 25  1  0
 11 26  1  0
 15 27  1  0
 15 28  1  0
 16 29  1  0
 16 30  1  0
 18 31  1  0
 18 32  1  0
 19 33  1  0
 19 34  1  0
M  CHG  1   6  -1
M  END
> <Name>
ZINC08249352

> <reference>
BDB50279824

> <quality>
0.782

> <status>
decoy

$$$$
ZINC03200426
  SciTegic06061311253D

 21 21  0  0  1  0            999 V2000
    2.6140   -1.4315    2.1831 C   0  0
    1.9611   -1.3685    3.4178 C   0  0
    0.7392   -0.8806    3.4889 N   0  0
    0.1125   -0.4434    2.3940 C   0  0
   -1.0183    0.0037    2.4870 O   0  0
    0.7106   -0.4894    1.1889 N   0  0
    1.9681   -0.9901    1.0703 C   0  0
    0.0021   -0.0041    0.0020 C   0  0  2  0  0  0
   -0.0187    1.5258    0.0104 C   0  0  1  0  0  0
    1.6728    2.1498   -0.0024 Cl  0  0
   -0.8907    2.1230   -1.4503 Cl  0  0
   -0.8626    2.1072    1.4938 Cl  0  0
   -1.3723   -0.5112    0.0124 N   0  0
   -1.7268   -1.5143   -0.8150 C   0  0
   -0.9080   -1.9972   -1.5681 O   0  0
    3.6359   -1.8325    2.1125 H   0  0
    2.4662   -1.7253    4.3275 H   0  0
    2.4578   -1.0379    0.0865 H   0  0
    0.5170   -0.3588   -0.9030 H   0  0
   -2.0677   -0.1011    0.6521 H   0  0
   -2.7588   -1.8950   -0.8072 H   0  0
  1  7  2  0
  1  2  1  0
  2  3  2  0
  3  4  1  0
  4  5  2  0
  4  6  1  0
  6  7  1  0
  6  8  1  0
  8  9  1  0
  8 13  1  0
  9 10  1  0
  9 11  1  0
  9 12  1  0
 13 14  1  0
 14 15  2  0
  1 16  1  0
  2 17  1  0
  7 18  1  0
  8 19  1  0
 13 20  1  0
 14 21  1  0
M  END
> <Name>
ZINC03200426

> <reference>
BDB50279824

> <quality>
0.779

> <status>
decoy

$$$$
ZINC06091445
  SciTegic06061311253D

 38 42  0  0  0  0            999 V2000
   -6.1228   -0.0325    0.7035 C   0  0
   -6.4092    0.6097   -0.4884 C   0  0
   -7.5954    0.7154   -1.3470 C   0  0
   -8.6402    0.1535   -1.0574 O   0  0
   -7.4867    1.4550   -2.4640 N   0  0
   -6.3594    2.0570   -2.7686 C   0  0
   -5.2686    1.9897   -2.0277 N   0  0
   -5.2354    1.2956   -0.9009 C   0  0
   -4.2786    1.0494    0.0485 N   0  0
   -4.8444    0.2221    1.0283 N   0  0
   -2.9042    1.5565    0.0381 C   0  0  2  0  0  0
   -2.1881    1.0631   -1.2207 C   0  0
   -0.7527    1.5927   -1.2315 C   0  0  2  0  0  0
   -0.0127    1.0858    0.0080 C   0  0
   -0.7288    1.5792    1.2668 C   0  0  2  0  0  0
   -2.1642    1.0497    1.2777 C   0  0
   -0.7496    3.1091    1.2752 C   0  0
   -1.4896    3.6159    0.0357 C   0  0  1  0  0  0
   -0.7734    3.1225   -1.2231 C   0  0
   -2.9250    3.0863    0.0466 C   0  0
   -6.8238   -0.6477    1.2867 H   0  0
   -6.3222    2.6510   -3.6937 H   0  0
   -4.3579   -0.1337    1.8636 H   0  0
   -2.1726   -0.0368   -1.2266 H   0  0
   -2.7192    1.4272   -2.1125 H   0  0
   -0.2378    1.2380   -2.1365 H   0  0
    1.0194    1.4662    0.0013 H   0  0
    0.0018   -0.0141    0.0023 H   0  0
   -0.1967    1.2148    2.1579 H   0  0
   -2.6786    1.4049    2.1828 H   0  0
   -2.1485   -0.0502    1.2726 H   0  0
   -1.2650    3.4640    2.1799 H   0  0
    0.2819    3.4910    1.2671 H   0  0
   -1.5046    4.7158    0.0417 H   0  0
   -1.3054    3.4880   -2.1138 H   0  0
    0.2585    3.5034   -1.2303 H   0  0
   -3.4565    3.4509   -0.8448 H   0  0
   -3.4394    3.4421    0.9515 H   0  0
  1 10  1  0
  1  2  2  0
  2  8  1  0
  2  3  1  0
  3  4  2  0
  3  5  1  0
  5  6  2  0
  6  7  1  0
  7  8  2  0
  8  9  1  0
  9 10  1  0
  9 11  1  0
 11 16  1  0
 11 20  1  0
 11 12  1  0
 12 13  1  0
 13 19  1  0
 13 14  1  0
 14 15  1  0
 15 16  1  0
 15 17  1  0
 17 18  1  0
 18 19  1  0
 18 20  1  0
  1 21  1  0
  6 22  1  0
 10 23  1  0
 12 24  1  0
 12 25  1  0
 13 26  1  0
 14 27  1  0
 14 28  1  0
 15 29  1  0
 16 30  1  0
 16 31  1  0
 17 32  1  0
 17 33  1  0
 18 34  1  0
 19 35  1  0
 19 36  1  0
 20 37  1  0
 20 38  1  0
M  END
> <Name>
ZINC06091445

> <reference>
BDB50279824

> <quality>
0.778

> <status>
decoy

$$$$
ZINC22205517
  SciTegic06061311253D

 36 39  0  0  1  0            999 V2000
    1.6744   -0.4039   -0.8601 C   0  0
    1.7774   -0.3902    0.6664 C   0  0  1  0  0  0
    1.1761    0.7452    1.3786 N   0  0
    0.5366   -0.5680    1.4323 N   0  0
   -0.6370   -0.5119    0.5316 C   0  0
   -0.9645    0.9361    0.4473 N   0  0
    0.3787    1.5739    0.4462 C   0  0
   -1.6926    1.2400   -0.7918 C   0  0
   -2.2275    2.6721   -0.7310 C   0  0
   -2.9555    2.9760   -1.9702 N   0  0
   -2.0140    3.2391   -3.0906 C   0  0
   -2.7928    4.0752   -4.0321 N   0  0
   -2.6734    5.4948   -3.6736 C   0  0  1  0  0  0
   -3.8486    4.7198   -3.2537 N   0  0
   -3.6910    4.2631   -1.8542 C   0  0
   -1.6526    5.8704   -2.5976 C   0  0
    0.9607    0.3909   -1.1226 H   0  0
    1.2118   -1.3664   -1.1238 H   0  0
    2.6455   -0.2648   -1.3577 H   0  0
    2.7665   -0.8715    0.6600 H   0  0
   -1.4801   -1.0652    0.9710 H   0  0
   -0.3701   -0.8978   -0.4633 H   0  0
    0.3079    2.6054    0.8216 H   0  0
    0.8142    1.5362   -0.5632 H   0  0
   -1.0129    1.1392   -1.6508 H   0  0
   -2.5334    0.5399   -0.9055 H   0  0
   -1.3879    3.3738   -0.6184 H   0  0
   -2.9077    2.7734    0.1275 H   0  0
   -1.7252    2.2941   -3.5739 H   0  0
   -1.1377    3.7954   -2.7264 H   0  0
   -2.5132    6.4293   -4.2313 H   0  0
   -4.6776    4.0959   -1.3973 H   0  0
   -3.0953    4.9909   -1.2836 H   0  0
   -0.6826    5.4971   -2.9576 H   0  0
   -1.9237    5.2854   -1.7063 H   0  0
   -1.6256    6.9500   -2.3883 H   0  0
  1  2  1  0
  2  4  1  0
  2  3  1  0
  3  7  1  0
  3  4  1  0
  4  5  1  0
  5  6  1  0
  6  7  1  0
  6  8  1  0
  8  9  1  0
  9 10  1  0
 10 15  1  0
 10 11  1  0
 11 12  1  0
 12 14  1  0
 12 13  1  0
 13 14  1  0
 13 16  1  0
 14 15  1  0
  1 17  1  0
  1 18  1  0
  1 19  1  0
  2 20  1  0
  5 21  1  0
  5 22  1  0
  7 23  1  0
  7 24  1  0
  8 25  1  0
  8 26  1  0
  9 27  1  0
  9 28  1  0
 11 29  1  0
 11 30  1  0
 13 31  1  0
 15 32  1  0
 15 33  1  0
 16 34  1  0
 16 35  1  0
 16 36  1  0
M  END
> <Name>
ZINC22205517

> <reference>
BDB50279824

> <quality>
0.770

> <status>
decoy

$$$$
ZINC21730136
  SciTegic06061311253D

 38 40  0  0  1  0            999 V2000
   -0.0127    1.0858    0.0080 C   0  0
   -0.7288    1.5792    1.2668 C   0  0
   -0.0203    1.0939    2.4537 N   0  0
   -0.2739   -0.0824    3.0957 C   0  0
    0.6247   -0.1473    4.1598 C   0  0
    1.3697    1.0328    4.0846 C   0  0
    0.9340    1.7146    3.0548 N   0  0
    2.4759    1.4466    5.0207 C   0  0
    0.6007   -1.2509    4.9962 N   0  0
   -0.2854   -2.2433    4.7923 C   0  0
   -0.2819   -3.5845    5.8564 S   0  0
   -1.1659   -2.2235    3.7783 N   0  0
   -1.2096   -1.1891    2.9104 C   0  0
   -2.0106   -1.1796    1.9940 O   0  0
   -2.0951   -3.3435    3.6102 C   0  0
   -1.4597   -4.4021    2.7065 C   0  0  1  0  0  0
   -2.4542   -5.5640    2.4577 C   0  0
   -1.9253   -6.1207    1.1078 C   0  0
   -1.4275   -4.8428    0.3989 C   0  0
   -1.1922   -3.8525    1.4066 O   0  0
    0.0025   -0.0141    0.0009 H   0  0
    1.0194    1.4662   -0.0008 H   0  0
   -0.5442    1.4499   -0.8836 H   0  0
   -1.7609    1.1988    1.2757 H   0  0
   -0.7433    2.6791    1.2733 H   0  0
    3.1576    0.5845    4.9766 H   0  0
    1.9869    1.3890    6.0044 H   0  0
    2.9598    2.4129    4.8154 H   0  0
   -1.4535   -1.0688    1.1832 H   0  0
   -2.3175   -3.7862    4.5923 H   0  0
   -3.0273   -2.9823    3.1512 H   0  0
   -0.5419   -4.7442    3.2070 H   0  0
   -2.3638   -6.3237    3.2481 H   0  0
   -3.4771   -5.1774    2.3389 H   0  0
   -2.7447   -6.5801    0.5355 H   0  0
   -1.0875   -6.8120    1.2816 H   0  0
   -2.1951   -4.4838   -0.3024 H   0  0
   -0.4912   -5.0571   -0.1372 H   0  0
  1  2  1  0
  2  3  1  0
  3  7  1  0
  3  4  1  0
  4 13  2  0
  4  5  1  0
  5  6  1  0
  5  9  2  0
  6  7  2  0
  6  8  1  0
  9 10  1  0
 10 11  2  0
 10 12  1  0
 12 13  1  0
 12 15  1  0
 13 14  1  0
 15 16  1  0
 16 20  1  0
 16 17  1  0
 17 18  1  0
 18 19  1  0
 19 20  1  0
  1 21  1  0
  1 22  1  0
  1 23  1  0
  2 24  1  0
  2 25  1  0
  8 26  1  0
  8 27  1  0
  8 28  1  0
 14 29  1  0
 15 30  1  0
 15 31  1  0
 16 32  1  0
 17 33  1  0
 17 34  1  0
 18 35  1  0
 18 36  1  0
 19 37  1  0
 19 38  1  0
M  END
> <Name>
ZINC21730136

> <reference>
BDB50279824

> <quality>
0.763

> <status>
decoy

$$$$
ZINC11611221
  SciTegic06061311253D

 25 25  0  0  0  0            999 V2000
    3.5238    2.0627   -0.0205 C   0  0
    2.3793    1.2071   -0.0142 O   0  0
    1.1435    1.8983    0.0013 N   0  5
   -0.0144    1.2086    0.0087 C   0  0
    0.0021   -0.0041    0.0020 O   0  0
   -1.3296    1.9443    0.0189 C   0  0
   -2.4300    0.9773    0.0189 N   0  0
   -2.9287    0.5277    1.1994 C   0  0
   -3.9452   -0.3651    1.2253 C   0  0
   -4.4947   -0.8358    0.0242 C   0  0
   -3.9928   -0.3835   -1.1613 C   0  0
   -2.9393    0.5485   -1.1516 C   0  0
   -2.4836    0.9652   -2.2046 O   0  0
   -4.6521   -0.9468   -2.6651 Cl  0  0
   -4.4860   -0.8537    2.5443 C   0  0  1  0  0  0
   -5.5963   -0.0837    2.9071 F   0  0
   -4.8675   -2.1943    2.4241 F   0  0
   -3.4964   -0.7368    3.5262 F   0  0
    3.4682    2.6977    0.8760 H   0  0
    3.4512    2.7073   -0.9088 H   0  0
    4.4598    1.4850   -0.0325 H   0  0
   -1.3926    2.5706    0.9210 H   0  0
   -1.4019    2.5809   -0.8753 H   0  0
   -2.5016    0.8933    2.1449 H   0  0
   -5.3212   -1.5616    0.0375 H   0  0
  1  2  1  0
  2  3  1  0
  3  4  1  0
  4  5  2  0
  4  6  1  0
  6  7  1  0
  7 12  1  0
  7  8  1  0
  8  9  2  0
  9 10  1  0
  9 15  1  0
 10 11  2  0
 11 12  1  0
 11 14  1  0
 12 13  2  0
 15 16  1  0
 15 17  1  0
 15 18  1  0
  1 19  1  0
  1 20  1  0
  1 21  1  0
  6 22  1  0
  6 23  1  0
  8 24  1  0
 10 25  1  0
M  CHG  1   3  -1
M  END
> <Name>
ZINC11611221

> <reference>
BDB50279824

> <quality>
0.761

> <status>
decoy

$$$$
ZINC07234921
  SciTegic06061311253D

 39 40  0  0  0  0            999 V2000
    1.3636    5.1329    0.0155 C   0  0
    0.5626    3.8564    0.0169 C   0  0
   -0.7368    3.7603    0.0285 N   0  0
   -1.0879    2.5239    0.0202 N   0  0
   -0.0218    1.7577    0.0117 C   0  0
    1.0648    2.5845    0.0058 N   0  0
    2.4758    2.1907   -0.0089 C   0  0
    0.0021   -0.0041    0.0020 S   0  0
   -1.7759   -0.3426    0.0172 C   0  0
   -2.0037   -1.8323    0.0114 C   0  0
   -1.0572   -2.5904   -0.0018 O   0  0
   -3.2593   -2.3220    0.0207 N   0  0
   -3.4807   -3.7702    0.0150 C   0  0  2  0  0  0
   -2.8568   -4.3766   -1.2435 C   0  0
   -3.0881   -5.8890   -1.2494 C   0  0
   -4.5910   -6.1752   -1.2366 C   0  0
   -5.2150   -5.5688    0.0219 C   0  0
   -4.9837   -4.0564    0.0279 C   0  0
   -2.8575   -4.3665    1.2078 C   0  0
   -2.3766   -4.8267    2.1284 N   0  0
    2.0063    5.0081   -0.8685 H   0  0
    2.0231    4.9994    0.8857 H   0  0
    0.7913    6.0723    0.0256 H   0  0
    2.8725    2.7265    0.8661 H   0  0
    2.8568    2.7356   -0.8852 H   0  0
    2.6963    1.1130   -0.0165 H   0  0
   -2.2426    0.1024   -0.8739 H   0  0
   -2.2244    0.0929    0.9223 H   0  0
   -4.0632   -1.6781    0.0318 H   0  0
   -1.7761   -4.1717   -1.2536 H   0  0
   -3.3228   -3.9315   -2.1349 H   0  0
   -2.6401   -6.3251   -2.1544 H   0  0
   -2.6230   -6.3357   -0.3583 H   0  0
   -4.7584   -7.2624   -1.2406 H   0  0
   -5.0569   -5.7292   -2.1276 H   0  0
   -6.2957   -5.7739    0.0309 H   0  0
   -4.7499   -6.0136    0.9140 H   0  0
   -5.4322   -3.6210    0.9330 H   0  0
   -5.4505   -3.6113   -0.8632 H   0  0
  1  2  1  0
  2  6  1  0
  2  3  2  0
  3  4  1  0
  4  5  2  0
  5  6  1  0
  5  8  1  0
  6  7  1  0
  8  9  1  0
  9 10  1  0
 10 11  2  0
 10 12  1  0
 12 13  1  0
 13 18  1  0
 13 14  1  0
 13 19  1  0
 14 15  1  0
 15 16  1  0
 16 17  1  0
 17 18  1  0
 19 20  3  0
  1 21  1  0
  1 22  1  0
  1 23  1  0
  7 24  1  0
  7 25  1  0
  7 26  1  0
  9 27  1  0
  9 28  1  0
 12 29  1  0
 14 30  1  0
 14 31  1  0
 15 32  1  0
 15 33  1  0
 16 34  1  0
 16 35  1  0
 17 36  1  0
 17 37  1  0
 18 38  1  0
 18 39  1  0
M  END
> <Name>
ZINC07234921

> <reference>
BDB50279824

> <quality>
0.755

> <status>
decoy

$$$$
ZINC01430104
  SciTegic06061311253D

 26 27  0  0  0  0            999 V2000
   -1.3179    4.5332    0.3210 C   0  0
   -0.4852    3.3295    0.2576 N   0  0
    0.8604    3.2993    0.1599 C   0  0
    1.2427    2.0016    0.1290 C   0  0
    0.0912    1.2118    0.2107 C   0  0
   -0.9455    2.0067    0.2821 N   0  0
    2.8984    1.4112    0.0079 S   0  0
    3.7361    2.4471    0.5022 O   0  0
    2.9033    0.1004    0.5565 O   0  0
    3.2445    1.2511   -1.6036 N   0  5
    3.1933    2.3688   -2.4449 C   0  0
    3.5843    3.6136   -1.9716 C   0  0
    3.5336    4.7156   -2.8036 C   0  0
    3.0931    4.5799   -4.1092 C   0  0
    2.7022    3.3397   -4.5850 C   0  0
    2.7561    2.2328   -3.7579 C   0  0
    2.3796    1.0216   -4.2233 F   0  0
    3.0442    5.6594   -4.9201 F   0  0
   -1.9017    4.3680    1.2386 H   0  0
   -2.0214    4.3773   -0.5101 H   0  0
   -0.7957    5.5009    0.2904 H   0  0
    1.5270    4.1731    0.1137 H   0  0
    0.0622    0.1122    0.2143 H   0  0
    3.9344    3.7228   -0.9345 H   0  0
    3.8436    5.7020   -2.4282 H   0  0
    2.3486    3.2349   -5.6213 H   0  0
  1  2  1  0
  2  6  1  0
  2  3  1  0
  3  4  2  0
  4  5  1  0
  4  7  1  0
  5  6  2  0
  7  8  2  0
  7  9  2  0
  7 10  1  0
 10 11  1  0
 11 16  2  0
 11 12  1  0
 12 13  2  0
 13 14  1  0
 14 15  2  0
 14 18  1  0
 15 16  1  0
 16 17  1  0
  1 19  1  0
  1 20  1  0
  1 21  1  0
  3 22  1  0
  5 23  1  0
 12 24  1  0
 13 25  1  0
 15 26  1  0
M  CHG  1  10  -1
M  END
> <Name>
ZINC01430104

> <reference>
BDB50279824

> <quality>
0.744

> <status>
decoy

$$$$
ZINC05863843
  SciTegic06061311253D

 37 38  0  0  0  0            999 V2000
   -2.4816   -1.5527    0.9155 C   0  0
   -2.1331   -0.1071    0.5555 C   0  0
   -0.3411    0.0411    0.3156 S   0  0
    0.0405   -0.5675   -0.9105 O   0  0
    0.3416   -0.2703    1.5222 O   0  0
   -0.0005    2.1126    0.0203 P   0  0
    1.6669    2.3410    0.0134 N   0  0
    2.0087    3.7603   -0.2604 C   0  0
    3.4549    3.8875    0.2807 C   0  0
    3.4292    3.0015    1.5474 C   0  0
    2.2495    2.0342    1.3377 C   0  0
   -0.5549    2.4873   -1.5239 N   0  0
   -1.9736    2.0813   -1.6932 C   0  0
   -2.4474    2.9400   -2.8927 C   0  0
   -1.7232    4.2861   -2.6616 C   0  0
   -0.5225    3.9471   -1.7590 C   0  0
   -1.9637   -1.8357    1.8438 H   0  0
   -2.1651   -2.2211    0.1012 H   0  0
   -3.5681   -1.6433    1.0611 H   0  0
   -2.4497    0.5613    1.3697 H   0  0
   -2.6513    0.1749   -0.3729 H   0  0
    1.9907    3.9557   -1.3428 H   0  0
    1.3362    4.4303    0.2954 H   0  0
    3.6711    4.9316    0.5512 H   0  0
    4.1719    3.4856   -0.4503 H   0  0
    3.2528    3.6218    2.4385 H   0  0
    4.3690    2.4360    1.6305 H   0  0
    2.6130    0.9961    1.3550 H   0  0
    1.4954    2.1924    2.1228 H   0  0
   -2.0377    1.0122   -1.9439 H   0  0
   -2.5543    2.3341   -0.7938 H   0  0
   -3.5374    3.0829   -2.8533 H   0  0
   -2.1167    2.4876   -3.8393 H   0  0
   -2.3926    4.9915   -2.1475 H   0  0
   -1.3698    4.6931   -3.6205 H   0  0
    0.4133    4.2235   -2.2667 H   0  0
   -0.6148    4.4813   -0.8019 H   0  0
  1  2  1  0
  2  3  1  0
  3  4  2  0
  3  5  2  0
  3  6  1  0
  6  7  1  0
  6 12  1  0
  7 11  1  0
  7  8  1  0
  8  9  1  0
  9 10  1  0
 10 11  1  0
 12 16  1  0
 12 13  1  0
 13 14  1  0
 14 15  1  0
 15 16  1  0
  1 17  1  0
  1 18  1  0
  1 19  1  0
  2 20  1  0
  2 21  1  0
  8 22  1  0
  8 23  1  0
  9 24  1  0
  9 25  1  0
 10 26  1  0
 10 27  1  0
 11 28  1  0
 11 29  1  0
 13 30  1  0
 13 31  1  0
 14 32  1  0
 14 33  1  0
 15 34  1  0
 15 35  1  0
 16 36  1  0
 16 37  1  0
M  END
> <Name>
ZINC05863843

> <reference>
BDB50279824

> <quality>
0.741

> <status>
decoy

$$$$
ZINC04635044
  SciTegic06061311253D

 34 35  0  0  1  0            999 V2000
    0.6293    8.5453   -0.2264 C   0  0
    1.6066    7.3984   -0.2015 C   0  0
    2.9766    7.5381   -0.2851 C   0  5
    3.5499    6.1843   -0.2109 C   0  0
    4.7284    5.8713   -0.2447 O   0  0
    2.3857    5.2916   -0.0964 C   0  0
    2.4074    3.9347   -0.0008 C   0  0
    1.1534    3.1756   -0.0535 C   0  0
    0.0389    3.7039   -0.7187 C   0  0
   -1.1350    2.9875   -0.7646 C   0  0
   -1.2183    1.7438   -0.1478 C   0  0
   -0.1139    1.2121    0.5093 C   0  0
    1.0652    1.9195    0.5616 C   0  0
   -2.3803    1.0439   -0.1918 O   0  0
   -2.3975   -0.2266    0.4620 C   0  0
    1.2592    6.1076   -0.0951 N   0  0
    3.7204    8.7963   -0.4168 C   0  0
    3.1225    9.8540   -0.4620 O   0  0
    5.0666    8.7793   -0.4877 O   0  0
    5.7362   10.0611   -0.6172 C   0  0
    0.0501    8.4044    0.6981 H   0  0
   -0.0449    8.2854   -1.0558 H   0  0
    1.0747    9.5469   -0.3185 H   0  0
    3.3654    3.4068    0.1160 H   0  0
    0.1024    4.6894   -1.2032 H   0  0
   -2.0092    3.3993   -1.2901 H   0  0
   -0.1831    0.2242    0.9881 H   0  0
    1.9368    1.4999    1.0852 H   0  0
   -2.1222   -0.0388    1.5103 H   0  0
   -1.5938   -0.8214    0.0034 H   0  0
   -3.3711   -0.7324    0.3832 H   0  0
    5.4231   10.6631    0.2486 H   0  0
    5.3281   10.5337   -1.5228 H   0  0
    6.8307    9.9642   -0.6688 H   0  0
  1  2  1  0
  2 16  2  0
  2  3  1  0
  3  4  1  0
  3 17  1  0
  4  5  2  0
  4  6  1  0
  6  7  2  0
  6 16  1  0
  7  8  1  0
  8 13  2  0
  8  9  1  0
  9 10  2  0
 10 11  1  0
 11 12  2  0
 11 14  1  0
 12 13  1  0
 14 15  1  0
 17 18  2  0
 17 19  1  0
 19 20  1  0
  1 21  1  0
  1 22  1  0
  1 23  1  0
  7 24  1  0
  9 25  1  0
 10 26  1  0
 12 27  1  0
 13 28  1  0
 15 29  1  0
 15 30  1  0
 15 31  1  0
 20 32  1  0
 20 33  1  0
 20 34  1  0
M  CHG  1   3  -1
M  END
> <Name>
ZINC04635044

> <reference>
BDB50279824

> <quality>
0.739

> <status>
decoy

$$$$
ZINC19857392
  SciTegic06061311253D

 27 28  0  0  1  0            999 V2000
    1.6448    6.7764    3.6448 C   0  0
    1.4852    5.6185    2.6936 C   0  0
    2.1283    4.4306    2.7520 C   0  0
    1.6209    3.7110    1.6367 C   0  0
    0.7675    4.5072    1.0466 N   0  0
    0.6779    5.5657    1.6241 O   0  0
    1.9668    2.4212    1.2474 N   0  5
    1.3471    1.8227    0.0625 C   0  0  2  0  0  0
   -0.1616    1.8168    0.2015 C   0  0
   -0.8958    2.7771    0.3161 O   0  5
   -0.5323    0.4481    0.1626 C   0  0
    0.5929   -0.3310    0.0171 C   0  0
    1.7158    0.4042   -0.0473 N   0  0
    0.5684   -1.8357   -0.0618 C   0  0
   -1.8723   -0.0473    0.2603 C   0  0
   -2.9354   -0.4403    0.3378 N   0  0
    1.7635    2.5812   -1.1993 C   0  0  1  0  0  0
    1.2002    3.8616   -1.1810 F   0  0
    3.1580    2.6858   -1.2417 F   0  0
    1.3132    1.8897   -2.3290 F   0  0
    0.6100    6.9589    3.9700 H   0  0
    1.8964    7.6055    2.9671 H   0  0
    2.3580    6.6388    4.4709 H   0  0
    2.8718    4.0983    3.4914 H   0  0
   -0.1218   -2.0367   -0.8944 H   0  0
    0.0392   -2.1311    0.8562 H   0  0
    1.5491   -2.3201   -0.1781 H   0  0
  1  2  1  0
  2  6  1  0
  2  3  2  0
  3  4  1  0
  4  5  2  0
  4  7  1  0
  5  6  1  0
  7  8  1  0
  8 13  1  0
  8  9  1  0
  8 17  1  0
  9 10  1  0
  9 11  2  0
 11 12  1  0
 11 15  1  0
 12 13  2  0
 12 14  1  0
 15 16  3  0
 17 18  1  0
 17 19  1  0
 17 20  1  0
  1 21  1  0
  1 22  1  0
  1 23  1  0
  3 24  1  0
 14 25  1  0
 14 26  1  0
 14 27  1  0
M  CHG  2   7  -1  10  -1
M  END
> <Name>
ZINC19857392

> <reference>
BDB50279824

> <quality>
0.738

> <status>
decoy

$$$$
ZINC15107840
  SciTegic06061311253D

 26 26  0  0  0  0            999 V2000
   -0.0187    1.5258    0.0104 C   0  0
    0.0021   -0.0041    0.0020 C   0  0  1  0  0  0
    0.7421   -0.5109    1.2415 C   0  0
   -1.4333   -0.5336    0.0129 C   0  0
    0.7074   -0.4901   -1.2379 C   0  0
    1.1481    0.3051   -2.0327 O   0  0
    0.8629   -1.9684   -1.4858 C   0  5
    2.2235   -2.4623   -1.9816 C   0  0  1  0  0  0
    1.0279   -2.4280   -2.9357 C   0  0  1  0  0  0
    0.4228   -3.7156   -3.3136 C   0  0
   -0.0442   -4.7092   -3.6053 N   0  0
    1.0222   -1.3924   -3.9819 C   0  0
    1.0177   -0.5933   -4.7892 N   0  0
    3.2804   -1.4571   -2.1799 C   0  0
    4.0961   -0.6814   -2.3330 N   0  0
    2.6806   -3.7803   -1.5118 C   0  0
    3.0333   -4.7975   -1.1492 N   0  0
    1.0129    1.9076    0.0023 H   0  0
   -0.5336    1.8816    0.9150 H   0  0
   -0.5506    1.8909   -0.8805 H   0  0
    0.2278   -0.1569    2.1472 H   0  0
    1.7743   -0.1309    1.2345 H   0  0
    0.7574   -1.6108    1.2361 H   0  0
   -1.9662   -0.1700   -0.8781 H   0  0
   -1.9490   -0.1796    0.9178 H   0  0
   -1.4191   -1.6335    0.0069 H   0  0
  1  2  1  0
  2  3  1  0
  2  4  1  0
  2  5  1  0
  5  6  2  0
  5  7  1  0
  7  9  1  0
  7  8  1  0
  8  9  1  0
  8 14  1  0
  8 16  1  0
  9 10  1  0
  9 12  1  0
 10 11  3  0
 12 13  3  0
 14 15  3  0
 16 17  3  0
  1 18  1  0
  1 19  1  0
  1 20  1  0
  3 21  1  0
  3 22  1  0
  3 23  1  0
  4 24  1  0
  4 25  1  0
  4 26  1  0
M  CHG  1   7  -1
M  END
> <Name>
ZINC15107840

> <reference>
BDB50279824

> <quality>
0.735

> <status>
decoy

$$$$
ZINC19799448
  SciTegic06061311253D

 46 48  0  0  1  0            999 V2000
   -0.7388    1.6177    1.2227 C   0  0
   -0.0096    1.1217   -0.0287 C   0  0
   -0.6807    1.6124   -1.1924 O   0  0
   -0.7620    3.0390   -1.2515 C   0  0
   -1.4998    3.5544   -0.0130 C   0  0
   -0.8052    3.0861    1.1951 N   0  0
   -1.4498    3.6068    2.4082 C   0  0
   -0.8641    2.9081    3.6369 C   0  0  2  0  0  0
   -1.6180    3.3604    4.8907 C   0  0
   -1.3945    4.7589    5.0941 O   0  0
   -0.0125    5.1044    5.2272 C   0  0  1  0  0  0
    0.7415    4.6521    3.9733 C   0  0
    0.5183    3.2525    3.7691 O   0  0
    0.1225    6.6199    5.3879 C   0  0
   -0.5963    7.0504    6.5945 N   0  0
   -0.8890    8.4903    6.5479 C   0  0
   -1.6887    8.8836    7.7928 C   0  0
   -0.9508    8.5186    8.9622 O   0  0
   -0.6490    7.1229    9.0403 C   0  0
    0.1613    6.7118    7.8081 C   0  0
   -0.1915    1.2915    2.1194 H   0  0
   -1.7575    1.2032    1.2416 H   0  0
   -0.0088    0.0218   -0.0426 H   0  0
    1.0267    1.4905   -0.0202 H   0  0
   -1.3106    3.3396   -2.1563 H   0  0
    0.2522    3.4641   -1.2774 H   0  0
   -1.5137    4.6542   -0.0249 H   0  0
   -2.5315    3.1729   -0.0137 H   0  0
   -2.5321    3.4164    2.3602 H   0  0
   -1.2709    4.6896    2.4827 H   0  0
   -0.9640    1.8191    3.5183 H   0  0
   -2.6944    3.1761    4.7588 H   0  0
   -1.2517    2.7997    5.7633 H   0  0
    0.4103    4.6066    6.1123 H   0  0
    1.8180    4.8365    4.1042 H   0  0
    0.3744    5.2133    3.1014 H   0  0
   -0.3055    7.1226    4.5081 H   0  0
    1.1859    6.8856    5.4808 H   0  0
   -1.4781    8.7175    5.6471 H   0  0
    0.0539    9.0563    6.5239 H   0  0
   -1.8597    9.9702    7.7913 H   0  0
   -2.6553    8.3586    7.7906 H   0  0
   -0.0611    6.9243    9.9486 H   0  0
   -1.5844    6.5450    9.0732 H   0  0
    0.3457    5.6277    7.8356 H   0  0
    1.1213    7.2489    7.8049 H   0  0
  1  6  1  0
  1  2  1  0
  2  3  1  0
  3  4  1  0
  4  5  1  0
  5  6  1  0
  6  7  1  0
  7  8  1  0
  8 13  1  0
  8  9  1  0
  9 10  1  0
 10 11  1  0
 11 12  1  0
 11 14  1  0
 12 13  1  0
 14 15  1  0
 15 20  1  0
 15 16  1  0
 16 17  1  0
 17 18  1  0
 18 19  1  0
 19 20  1  0
  1 21  1  0
  1 22  1  0
  2 23  1  0
  2 24  1  0
  4 25  1  0
  4 26  1  0
  5 27  1  0
  5 28  1  0
  7 29  1  0
  7 30  1  0
  8 31  1  0
  9 32  1  0
  9 33  1  0
 11 34  1  0
 12 35  1  0
 12 36  1  0
 14 37  1  0
 14 38  1  0
 16 39  1  0
 16 40  1  0
 17 41  1  0
 17 42  1  0
 19 43  1  0
 19 44  1  0
 20 45  1  0
 20 46  1  0
M  END
> <Name>
ZINC19799448

> <reference>
BDB50279824

> <quality>
0.734

> <status>
decoy

$$$$
ZINC02802228
  SciTegic06061311253D

 32 35  0  0  0  0            999 V2000
   -5.5601    3.7017   -4.7137 C   0  0
   -5.6250    2.9645   -3.4009 C   0  0
   -6.3821    1.8168   -3.1410 C   0  0
   -6.1707    1.4617   -1.8519 C   0  0
   -5.3102    2.3536   -1.3155 N   0  0
   -4.9871    3.2903   -2.3058 N   0  0
   -4.8081    2.3465    0.0607 C   0  0
   -3.3012    2.3469    0.0457 C   0  0
   -2.5350    3.4331    0.0438 N   0  0
   -1.2650    3.0804    0.0298 C   0  0
    0.0044    3.8061    0.0215 C   0  0
    0.3703    5.1638    0.0253 C   0  0
    1.6729    5.2403    0.0138 N   0  0
    2.2162    3.9496    0.0020 N   0  0
    1.1891    3.0542    0.0066 C   0  0
    1.1203    1.7151    0.0006 N   0  0
   -0.0126    1.0758    0.0080 C   0  0
   -1.2139    1.7113    0.0172 N   0  0
   -2.5452    1.2761    0.0330 N   0  0
    3.6433    3.6189   -0.0133 C   0  0
   -7.4109    0.9941   -4.2717 Cl  0  0
   -4.4812    3.7275   -4.9264 H   0  0
   -5.8405    4.7274   -4.4321 H   0  0
   -6.1651    3.2836   -5.5317 H   0  0
   -6.6194    0.6011   -1.3342 H   0  0
   -5.1692    3.2421    0.5875 H   0  0
   -5.1686    1.4458    0.5791 H   0  0
   -0.3240    6.0170    0.0361 H   0  0
    0.0023   -0.0241    0.0068 H   0  0
    4.0228    4.1655    0.8626 H   0  0
    4.0061    4.1745   -0.8906 H   0  0
    3.9044    2.5504   -0.0213 H   0  0
  1  2  1  0
  2  6  2  0
  2  3  1  0
  3  4  2  0
  3 21  1  0
  4  5  1  0
  5  6  1  0
  5  7  1  0
  7  8  1  0
  8 19  2  0
  8  9  1  0
  9 10  2  0
 10 18  1  0
 10 11  1  0
 11 15  2  0
 11 12  1  0
 12 13  2  0
 13 14  1  0
 14 15  1  0
 14 20  1  0
 15 16  1  0
 16 17  2  0
 17 18  1  0
 18 19  1  0
  1 22  1  0
  1 23  1  0
  1 24  1  0
  4 25  1  0
  7 26  1  0
  7 27  1  0
 12 28  1  0
 17 29  1  0
 20 30  1  0
 20 31  1  0
 20 32  1  0
M  END
> <Name>
ZINC02802228

> <reference>
BDB50279824

> <quality>
0.730

> <status>
decoy

$$$$
ZINC05762180
  SciTegic06061311253D

 35 36  0  0  1  0            999 V2000
    0.3961   -0.0803   -2.7345 C   0  0
    0.2153    1.4100   -2.4390 C   0  0  2  0  0  0
    1.5691    2.0305   -2.0873 C   0  0
    1.4158    3.5395   -1.8776 C   0  0
    0.3149    3.7843   -0.8657 C   0  0
    0.4887    4.5079    0.0853 O   0  0
   -1.0062    3.0905   -1.0893 C   0  0  1  0  0  0
   -0.7396    1.5864   -1.2456 C   0  0  2  0  0  0
   -0.0127    1.0858    0.0080 C   0  0
   -0.6992    1.5615    1.2509 C   0  0
   -1.5567    2.5633    1.2820 C   0  0
   -1.9644    3.3386    0.0647 C   0  0  2  0  0  0
   -3.3523    2.9194   -0.3464 C   0  0
   -4.2498    3.7274   -0.3535 O   0  0
   -2.1410    2.9368    2.5697 C   0  0
   -2.9338    3.8530    2.6333 O   0  0
   -0.3659    2.1115   -3.6682 C   0  0
   -0.5793   -0.5273   -2.9770 H   0  0
    0.8183   -0.5811   -1.8508 H   0  0
    1.0788   -0.2062   -3.5877 H   0  0
    2.2802    1.8467   -2.9062 H   0  0
    1.9529    1.5712   -1.1644 H   0  0
    1.1517    4.0199   -2.8313 H   0  0
    2.3612    3.9568   -1.5006 H   0  0
   -1.4787    3.4926   -1.9977 H   0  0
   -1.6808    1.0363   -1.3925 H   0  0
    0.0053   -0.0140    0.0025 H   0  0
    1.0226    1.4575    0.0015 H   0  0
   -0.4748    1.0441    2.1953 H   0  0
   -1.9433    4.4105    0.3109 H   0  0
   -3.5479    1.8775   -0.6400 H   0  0
   -1.8616    2.3870    3.4806 H   0  0
   -1.3407    1.6667   -3.9170 H   0  0
    0.3201    1.9876   -4.5191 H   0  0
   -0.4954    3.1828   -3.4546 H   0  0
  1  2  1  0
  2  8  1  0
  2  3  1  0
  2 17  1  0
  3  4  1  0
  4  5  1  0
  5  6  2  0
  5  7  1  0
  7 12  1  0
  7  8  1  0
  8  9  1  0
  9 10  1  0
 10 11  2  0
 11 12  1  0
 11 15  1  0
 12 13  1  0
 13 14  2  0
 15 16  2  0
  1 18  1  0
  1 19  1  0
  1 20  1  0
  3 21  1  0
  3 22  1  0
  4 23  1  0
  4 24  1  0
  7 25  1  0
  8 26  1  0
  9 27  1  0
  9 28  1  0
 10 29  1  0
 12 30  1  0
 13 31  1  0
 15 32  1  0
 17 33  1  0
 17 34  1  0
 17 35  1  0
M  END
> <Name>
ZINC05762180

> <reference>
BDB50279824

> <quality>
0.730

> <status>
decoy

$$$$
ZINC04251011
  SciTegic06061311253D

 38 40  0  0  0  0            999 V2000
   -1.7173   -0.9909   -1.4301 C   0  0
   -1.2636   -0.7419    0.0096 C   0  0
    0.0021   -0.0041    0.0020 N   0  0
   -0.0162    1.3447    0.0094 C   0  0
   -1.0765    1.9458    0.0177 O   0  0
    1.1986    2.0496    0.0016 C   0  0
    2.3972    1.3374   -0.0132 C   0  0
    3.3889    2.2241   -0.0179 N   0  0
    2.8955    3.4539   -0.0065 C   0  0
    1.5435    3.3928    0.0061 N   0  0
    1.0535    4.6869    0.0182 C   0  0
    2.0858    5.5252    0.0131 C   0  0
    3.2480    4.7776   -0.0024 N   0  0
    4.6141    5.3067   -0.0125 C   0  0
    5.0688    5.4962   -1.4367 C   0  0
    5.5051    6.6654   -1.8349 C   0  0
    2.0027    7.0299    0.0220 C   0  0
    2.3504   -0.0485   -0.0206 N   0  0
    1.1624   -0.6822   -0.0127 C   0  0
    1.1388   -1.8979   -0.0186 O   0  0
    3.5937   -0.8233   -0.0366 C   0  0
   -0.9537   -1.5796   -1.9597 H   0  0
   -1.8581   -0.0280   -1.9430 H   0  0
   -2.6676   -1.5449   -1.4251 H   0  0
   -2.0276   -0.1529    0.5383 H   0  0
   -1.1228   -1.7047    0.5226 H   0  0
   -0.0085    4.9733    0.0300 H   0  0
    5.2863    4.5993    0.4952 H   0  0
    4.6367    6.2740    0.5108 H   0  0
    5.0343    4.6527   -2.1419 H   0  0
    5.5396    7.5089   -1.1297 H   0  0
    5.8370    6.8037   -2.8745 H   0  0
    1.3827    7.2335    0.9076 H   0  0
    1.3664    7.2429   -0.8496 H   0  0
    2.9620    7.5681    0.0160 H   0  0
    4.1547   -0.4802    0.8452 H   0  0
    4.1381   -0.4702   -0.9248 H   0  0
    3.4428   -1.9129   -0.0414 H   0  0
  1  2  1  0
  2  3  1  0
  3 19  1  0
  3  4  1  0
  4  5  2  0
  4  6  1  0
  6 10  1  0
  6  7  2  0
  7  8  1  0
  7 18  1  0
  8  9  2  0
  9 13  1  0
  9 10  1  0
 10 11  1  0
 11 12  2  0
 12 13  1  0
 12 17  1  0
 13 14  1  0
 14 15  1  0
 15 16  2  0
 18 19  1  0
 18 21  1  0
 19 20  2  0
  1 22  1  0
  1 23  1  0
  1 24  1  0
  2 25  1  0
  2 26  1  0
 11 27  1  0
 14 28  1  0
 14 29  1  0
 15 30  1  0
 16 31  1  0
 16 32  1  0
 17 33  1  0
 17 34  1  0
 17 35  1  0
 21 36  1  0
 21 37  1  0
 21 38  1  0
M  END
> <Name>
ZINC04251011

> <reference>
BDB50279824

> <quality>
0.730

> <status>
decoy

$$$$
ZINC05606407
  SciTegic06061311253D

 38 40  0  0  1  0            999 V2000
   -1.9825    1.2315   -1.3488 C   0  0
   -0.6320    1.6887   -1.2529 O   0  0
   -0.0173    1.4248    0.0099 C   0  0
    1.4181    1.9544   -0.0010 C   0  0  2  0  0  0
    1.4215    3.4587   -0.2579 C   0  0  2  0  0  0
    2.6338    3.8120   -1.1422 C   0  0
    2.3548    3.1586   -2.4922 C   0  0
    2.1402    1.8449   -2.4264 C   0  0
    2.2506    1.2161   -1.0658 C   0  0  2  0  0  0
    1.9207   -0.2666   -0.9557 C   0  0
    2.2340   -0.6771    0.4766 C   0  0
    2.8018   -1.7194    0.7025 O   0  0
    1.8696    0.1373    1.4937 O   0  0
    2.1405    1.5588    1.2987 C   0  0  2  0  0  0
    1.6659    2.3653    2.4626 C   0  0
    1.3894    3.6735    2.2857 C   0  0
    1.4275    4.2492    1.0158 C   0  0
    1.4661    5.4609    0.9376 O   0  0
    1.5164    1.7941    3.6727 O   0  0
    1.0507    2.6472    4.7514 C   0  0
   -2.5565    1.7231   -0.5495 H   0  0
   -1.9800    0.1479   -1.1594 H   0  0
   -2.4157    1.4547   -2.3349 H   0  0
   -0.5864    1.9259    0.8068 H   0  0
   -0.0058    0.3404    0.1939 H   0  0
    0.4926    3.7288   -0.7816 H   0  0
    2.7073    4.9031   -1.2609 H   0  0
    3.5531    3.3944   -0.7058 H   0  0
    2.3327    3.7221   -3.4367 H   0  0
    1.8953    1.2524   -3.3203 H   0  0
    3.3306    1.3147   -0.8817 H   0  0
    0.8529   -0.4283   -1.1649 H   0  0
    2.5463   -0.8423   -1.6537 H   0  0
    3.2203    1.7546    1.2230 H   0  0
    1.1302    4.2953    3.1553 H   0  0
    0.0876    3.0647    4.4225 H   0  0
    1.7709    3.4754    4.8244 H   0  0
    0.9542    2.1089    5.7058 H   0  0
  1  2  1  0
  2  3  1  0
  3  4  1  0
  4  9  1  0
  4 14  1  0
  4  5  1  0
  5 17  1  0
  5  6  1  0
  6  7  1  0
  7  8  2  0
  8  9  1  0
  9 10  1  0
 10 11  1  0
 11 12  2  0
 11 13  1  0
 13 14  1  0
 14 15  1  0
 15 16  2  0
 15 19  1  0
 16 17  1  0
 17 18  2  0
 19 20  1  0
  1 21  1  0
  1 22  1  0
  1 23  1  0
  3 24  1  0
  3 25  1  0
  5 26  1  0
  6 27  1  0
  6 28  1  0
  7 29  1  0
  8 30  1  0
  9 31  1  0
 10 32  1  0
 10 33  1  0
 14 34  1  0
 16 35  1  0
 20 36  1  0
 20 37  1  0
 20 38  1  0
M  END
> <Name>
ZINC05606407

> <reference>
BDB50279824

> <quality>
0.730

> <status>
decoy

$$$$
ZINC02117109
  SciTegic06061311253D

 35 37  0  0  1  0            999 V2000
   -0.3757    0.3655    0.2590 C   0  0
   -0.8986    2.6928    0.6743 C   0  0
   -2.0033    2.7256   -0.3838 C   0  0
   -2.0828    4.0741   -0.9686 C   0  0
   -2.1442    5.1148   -1.4198 N   0  0
    0.0598    1.3346    2.4347 C   0  0
   -0.6562    1.9617    3.6031 C   0  0
   -0.3336    3.2104    4.0305 C   0  0
   -1.0224    3.7773    5.1221 C   0  0
   -0.7266    4.8994    5.4923 O   0  0
   -1.9916    3.1103    5.7675 O   0  0
   -2.3571    1.8634    5.3973 C   0  0
   -1.7141    1.2393    4.3123 C   0  0
   -2.0876   -0.0530    3.9252 C   0  0
   -3.0866   -0.7096    4.6108 C   0  0
   -3.7261   -0.0875    5.6892 C   0  0
   -3.3613    1.1905    6.0767 C   0  0
   -4.6652   -0.9428    6.1871 O   0  0
   -4.3157   -2.2414    5.6737 C   0  0
   -3.6298   -1.9513    4.4416 O   0  0
   -0.8456    1.3396    1.2664 N   0  0
    0.6283    0.6543   -0.0854 H   0  0
   -1.0676    0.3644   -0.5961 H   0  0
   -0.3378   -0.6399    0.7038 H   0  0
   -1.1185    3.4299    1.4607 H   0  0
    0.0682    2.9270    0.2048 H   0  0
   -1.7751    1.9963   -1.1750 H   0  0
   -2.9667    2.4715    0.0824 H   0  0
    0.9645    1.9154    2.2019 H   0  0
    0.3350    0.2988    2.6825 H   0  0
    0.4628    3.7774    3.5262 H   0  0
   -1.5859   -0.5423    3.0774 H   0  0
   -3.8689    1.6730    6.9250 H   0  0
   -5.2237   -2.8290    5.4731 H   0  0
   -3.6400   -2.7570    6.3719 H   0  0
  1 21  1  0
  2  3  1  0
  2 21  1  0
  3  4  1  0
  4  5  3  0
  6  7  1  0
  6 21  1  0
  7 13  1  0
  7  8  2  0
  8  9  1  0
  9 10  2  0
  9 11  1  0
 11 12  1  0
 12 17  2  0
 12 13  1  0
 13 14  2  0
 14 15  1  0
 15 20  1  0
 15 16  2  0
 16 17  1  0
 16 18  1  0
 18 19  1  0
 19 20  1  0
  1 22  1  0
  1 23  1  0
  1 24  1  0
  2 25  1  0
  2 26  1  0
  3 27  1  0
  3 28  1  0
  6 29  1  0
  6 30  1  0
  8 31  1  0
 14 32  1  0
 17 33  1  0
 19 34  1  0
 19 35  1  0
M  END
> <Name>
ZINC02117109

> <reference>
BDB50279824

> <quality>
0.729

> <status>
decoy

$$$$
ZINC26507856
  SciTegic06061311253D

 25 27  0  0  0  0            999 V2000
   -0.0169    1.3946    0.0097 C   0  0
    1.1807    2.0800    0.0020 C   0  0
    2.3307    1.4341   -0.0125 N   0  0
    2.3932    0.1165   -0.0202 C   0  0
    1.2441   -0.6474   -0.0133 C   0  0
    0.0021   -0.0041    0.0020 C   0  0
   -1.2575   -0.7820    0.0103 C   0  0
   -1.3588   -2.1318    0.0041 N   0  0
   -2.7317   -2.4267    0.0170 N   0  0
   -3.3698   -1.2754    0.0300 C   0  0
   -2.4743   -0.2826    0.0309 N   0  0
   -4.8438   -1.1069    0.0469 C   0  0
   -5.6761   -2.2262    0.0496 C   0  0
   -6.9865   -2.0708    0.0647 N   0  0
   -7.5101   -0.8567    0.0772 C   0  0
   -6.6879    0.2565    0.0746 C   0  0
   -5.3755    0.1112    0.0651 N   0  0
   -0.9722    1.9399    0.0217 H   0  0
    1.1763    3.1800    0.0080 H   0  0
    3.3747   -0.3800   -0.0323 H   0  0
    1.3039   -1.7458   -0.0197 H   0  0
   -0.5825   -2.8087   -0.0077 H   0  0
   -5.2411   -3.2365    0.0392 H   0  0
   -8.6028   -0.7311    0.0897 H   0  0
   -7.1285    1.2644    0.0805 H   0  0
  1  6  2  0
  1  2  1  0
  2  3  2  0
  3  4  1  0
  4  5  2  0
  5  6  1  0
  6  7  1  0
  7 11  2  0
  7  8  1  0
  8  9  1  0
  9 10  2  0
 10 11  1  0
 10 12  1  0
 12 17  2  0
 12 13  1  0
 13 14  2  0
 14 15  1  0
 15 16  2  0
 16 17  1  0
  1 18  1  0
  2 19  1  0
  4 20  1  0
  5 21  1  0
  8 22  1  0
 13 23  1  0
 15 24  1  0
 16 25  1  0
M  END
> <Name>
ZINC26507856

> <reference>
BDB50279824

> <quality>
0.729

> <status>
decoy

$$$$
ZINC25503604
  SciTegic06061311253D

 33 35  0  0  1  0            999 V2000
    3.0460   -6.4264    0.7694 C   0  0
    3.0027   -5.5573   -0.4610 C   0  0
    2.6521   -4.2144   -0.3472 C   0  0
    2.6178   -3.4320   -1.4854 C   0  0
    2.9247   -4.0061   -2.6853 N   0  0
    3.2680   -5.3273   -2.7470 C   0  0
    3.2968   -6.0725   -1.6362 N   0  0
    3.5178   -5.6082   -4.0213 N   0  0
    3.3370   -4.5226   -4.7634 C   0  0
    2.9825   -3.5199   -3.9976 N   0  0
    2.2752   -2.1002   -1.4117 N   0  0
    3.3285   -1.2530   -1.9867 C   0  0
    1.9815   -1.7080   -0.0268 C   0  0
    1.3784   -0.3270   -0.0129 C   0  0
    0.0021   -0.0041    0.0020 C   0  0
   -0.0163    1.3503    0.0095 C   0  0
    1.2639    1.7472   -0.0006 O   0  0
    2.0215    0.8048   -0.0129 N   0  0
   -1.2355    2.2360    0.0203 C   0  0
    4.0663   -6.8365    0.7994 H   0  0
    2.3616   -7.2615    0.5592 H   0  0
    2.7824   -5.8920    1.6941 H   0  0
    2.4061   -3.7830    0.6343 H   0  0
    3.4652   -4.4722   -5.8547 H   0  0
    3.4774   -1.5354   -3.0394 H   0  0
    4.2635   -1.4221   -1.4324 H   0  0
    3.0407   -0.1934   -1.9206 H   0  0
    1.2706   -2.4224    0.4138 H   0  0
    2.9117   -1.7070    0.5603 H   0  0
   -0.8553   -0.6932    0.0065 H   0  0
   -1.7860    1.8661    0.8978 H   0  0
   -1.7946    1.8756   -0.8558 H   0  0
   -1.0568    3.3214    0.0254 H   0  0
  1  2  1  0
  2  7  2  0
  2  3  1  0
  3  4  2  0
  4  5  1  0
  4 11  1  0
  5 10  1  0
  5  6  1  0
  6  7  1  0
  6  8  2  0
  8  9  1  0
  9 10  2  0
 11 12  1  0
 11 13  1  0
 13 14  1  0
 14 18  2  0
 14 15  1  0
 15 16  2  0
 16 17  1  0
 16 19  1  0
 17 18  1  0
  1 20  1  0
  1 21  1  0
  1 22  1  0
  3 23  1  0
  9 24  1  0
 12 25  1  0
 12 26  1  0
 12 27  1  0
 13 28  1  0
 13 29  1  0
 15 30  1  0
 19 31  1  0
 19 32  1  0
 19 33  1  0
M  END
> <Name>
ZINC25503604

> <reference>
BDB50279824

> <quality>
0.728

> <status>
decoy

$$$$
ZINC01635674
  SciTegic06061311253D

 29 30  0  0  0  0            999 V2000
   -4.8521    2.7229    0.0632 C   0  0
   -3.3709    3.0002    0.0505 C   0  0
   -2.9141    4.3132    0.0532 C   0  0
   -1.6222    4.5741    0.0422 N   0  0
   -0.7465    3.5758    0.0284 C   0  0
   -1.2101    2.2438    0.0193 C   0  0
   -2.5176    1.9970    0.0364 N   0  0
   -0.0169    1.3955    0.0097 C   0  0
    1.0267    2.1810    0.0040 N   0  0
    0.6205    3.5189    0.0151 N   0  0
    1.5174    4.6773    0.0132 C   0  0
    0.0021   -0.0041    0.0020 N   0  0
    1.1783   -0.6620   -0.0122 C   0  0
    2.2203   -0.0413   -0.0184 O   0  0
    1.1987   -2.1688   -0.0205 C   0  0  1  0  0  0
    2.5238   -2.6172   -0.0350 F   0  0
    0.5560   -2.6502    1.1251 F   0  0
    0.5352   -2.6379   -1.1593 F   0  0
   -3.9051    5.4484    0.0693 C   0  0
   -5.0216    2.0914    0.9478 H   0  0
   -5.0388    2.1018   -0.8253 H   0  0
   -5.4693    3.6333    0.0745 H   0  0
    1.1875    5.2419    0.8977 H   0  0
    1.1708    5.2519   -0.8584 H   0  0
    2.5957    4.4601    0.0017 H   0  0
   -0.8828   -0.5312    0.0072 H   0  0
   -4.5267    5.2753    0.9602 H   0  0
   -4.5443    5.2851   -0.8109 H   0  0
   -3.4383    6.4444    0.0702 H   0  0
  1  2  1  0
  2  7  1  0
  2  3  2  0
  3  4  1  0
  3 19  1  0
  4  5  2  0
  5 10  1  0
  5  6  1  0
  6  7  2  0
  6  8  1  0
  8  9  2  0
  8 12  1  0
  9 10  1  0
 10 11  1  0
 12 13  1  0
 13 14  2  0
 13 15  1  0
 15 16  1  0
 15 17  1  0
 15 18  1  0
  1 20  1  0
  1 21  1  0
  1 22  1  0
 11 23  1  0
 11 24  1  0
 11 25  1  0
 12 26  1  0
 19 27  1  0
 19 28  1  0
 19 29  1  0
M  END
> <Name>
ZINC01635674

> <reference>
BDB50279824

> <quality>
0.724

> <status>
decoy

$$$$
ZINC28174420
  SciTegic06061311253D

 32 34  0  0  1  0            999 V2000
    5.8572   -5.2468    5.6814 C   0  0
    4.7930   -5.1231    4.6215 C   0  0
    3.5973   -5.6736    4.5548 N   0  0
    2.8383   -5.4464    3.5721 N   0  0
    3.2020   -4.6560    2.5767 C   0  0
    4.7942   -4.1874    3.0968 S   0  0
    2.5031   -4.2973    1.4290 N   0  0
    1.2630   -4.7805    1.2165 C   0  0
    0.7565   -5.5281    2.0261 O   0  5
    0.5058   -4.3918   -0.0271 C   0  0
   -0.7455   -5.1582   -0.0981 N   0  0
   -0.4759   -6.5897   -0.2939 C   0  0
   -1.7477   -7.3849    0.0469 C   0  0
   -2.8992   -6.7109   -0.6251 C   0  0
   -2.9038   -5.4650   -1.1765 C   0  0
   -4.0995   -5.0445   -1.7539 C   0  0
   -5.1792   -5.8608   -1.7453 C   0  0
   -4.5450   -7.3023   -0.9005 S   0  0
   -1.6356   -4.6177   -1.1334 C   0  0
    6.0407   -4.1796    5.8748 H   0  0
    6.7090   -5.5309    5.0460 H   0  0
    5.6986   -5.8718    6.5726 H   0  0
    1.1189   -4.6093   -0.9141 H   0  0
    0.2754   -3.3167    0.0048 H   0  0
    0.3434   -6.9055    0.3686 H   0  0
   -0.1980   -6.7724   -1.3424 H   0  0
   -1.9040   -7.3874    1.1357 H   0  0
   -1.6520   -8.4152   -0.3265 H   0  0
   -4.1664   -4.0490   -2.2169 H   0  0
   -6.1855   -5.6831   -2.1525 H   0  0
   -1.8962   -3.5772   -0.8896 H   0  0
   -1.1331   -4.6576   -2.1111 H   0  0
  1  2  1  0
  2  6  1  0
  2  3  2  0
  3  4  1  0
  4  5  2  0
  5  6  1  0
  5  7  1  0
  7  8  2  0
  8  9  1  0
  8 10  1  0
 10 11  1  0
 11 19  1  0
 11 12  1  0
 12 13  1  0
 13 14  1  0
 14 18  1  0
 14 15  2  0
 15 16  1  0
 15 19  1  0
 16 17  2  0
 17 18  1  0
  1 20  1  0
  1 21  1  0
  1 22  1  0
 10 23  1  0
 10 24  1  0
 12 25  1  0
 12 26  1  0
 13 27  1  0
 13 28  1  0
 16 29  1  0
 17 30  1  0
 19 31  1  0
 19 32  1  0
M  CHG  1   9  -1
M  END
> <Name>
ZINC28174420

> <reference>
BDB50279824

> <quality>
0.723

> <status>
decoy

$$$$
ZINC27931164
  SciTegic06061311253D

 32 33  0  0  0  0            999 V2000
    3.3231   -0.7796    4.9095 C   0  0
    2.0684   -0.1084    4.5610 N   0  0
    1.4944    0.9164    5.2296 C   0  0
    0.3882    1.2459    4.6212 N   0  0
    0.2170    0.4521    3.5532 C   0  0
    1.2554   -0.4059    3.5007 C   0  0
    1.5135   -1.6471    2.3148 Cl  0  0
   -1.1323    0.5151    2.4218 S   0  0
   -2.2175    1.1139    3.1169 O   0  0
   -1.2254   -0.7728    1.8286 O   0  0
   -0.7086    1.5639    1.2123 N   0  0
   -0.0127    1.0858    0.0080 C   0  0
   -0.7616    1.5973   -1.2272 C   0  0
   -0.9128    3.0556   -1.1352 N   0  0
   -1.7318    3.4342    0.0240 C   0  0
   -1.0227    2.9981    1.3105 C   0  0
   -1.4718    3.6062   -2.3771 C   0  0
    3.9011   -0.6963    3.9773 H   0  0
    3.0154   -1.8336    4.9755 H   0  0
    3.8528   -0.4105    5.8001 H   0  0
    1.8938    1.3937    6.1366 H   0  0
    0.0007   -0.0141    0.0006 H   0  0
    1.0174    1.4715   -0.0004 H   0  0
   -0.1912    1.3444   -2.1331 H   0  0
   -1.7555    1.1283   -1.2755 H   0  0
   -1.8714    4.5253    0.0343 H   0  0
   -2.7118    2.9387   -0.0400 H   0  0
   -1.6836    3.1729    2.1723 H   0  0
   -0.0927    3.5731    1.4308 H   0  0
   -2.4541    3.1459   -2.5595 H   0  0
   -0.7980    3.3587   -3.2106 H   0  0
   -1.5793    4.6978   -2.2939 H   0  0
  1  2  1  0
  2  6  1  0
  2  3  1  0
  3  4  2  0
  4  5  1  0
  5  6  2  0
  5  8  1  0
  6  7  1  0
  8  9  2  0
  8 10  2  0
  8 11  1  0
 11 16  1  0
 11 12  1  0
 12 13  1  0
 13 14  1  0
 14 15  1  0
 14 17  1  0
 15 16  1  0
  1 18  1  0
  1 19  1  0
  1 20  1  0
  3 21  1  0
 12 22  1  0
 12 23  1  0
 13 24  1  0
 13 25  1  0
 15 26  1  0
 15 27  1  0
 16 28  1  0
 16 29  1  0
 17 30  1  0
 17 31  1  0
 17 32  1  0
M  END
> <Name>
ZINC27931164

> <reference>
BDB50279824

> <quality>
0.720

> <status>
decoy

$$$$
ZINC27923389
  SciTegic06061311253D

 32 33  0  0  0  0            999 V2000
   -2.5470    4.2459   -1.1325 C   0  0
   -1.5685    4.3348    0.0403 C   0  0
   -0.6815    3.1689    0.0256 N   0  0
    0.6764    3.1977    0.0128 C   0  0
    1.1133    1.9123    0.0017 C   0  0
   -0.0126    1.0758    0.0080 C   0  0
   -1.0835    1.8272    0.0165 N   0  0
    2.4567    1.4937   -0.0134 N   0  0
    2.7528    0.1789   -0.0238 C   0  0
    1.8589   -0.6457   -0.0201 O   0  0
    4.1610   -0.2599   -0.0396 C   0  0
    5.1997    0.6785   -0.0498 C   0  0
    6.5033    0.2155   -0.0599 C   0  0
    6.7411   -1.1474   -0.0704 C   0  0
    5.7471   -2.0142   -0.0656 N   0  0
    4.4834   -1.6252   -0.0505 C   0  0
    3.4944   -2.5504   -0.0461 O   0  0
    3.8904   -3.9234   -0.0578 C   0  0
   -3.1470    3.3284   -1.0420 H   0  0
   -1.9861    4.2247   -2.0785 H   0  0
   -3.2133    5.1210   -1.1221 H   0  0
   -0.9687    5.2523   -0.0512 H   0  0
   -2.1293    4.3560    0.9864 H   0  0
    1.3074    4.0987    0.0116 H   0  0
    0.0023   -0.0241    0.0061 H   0  0
    3.2137    2.1921   -0.0165 H   0  0
    4.9847    1.7573   -0.0498 H   0  0
    7.3438    0.9251   -0.0596 H   0  0
    7.7779   -1.5147   -0.0830 H   0  0
    4.5314   -4.0681    0.8244 H   0  0
    4.5140   -4.0579   -0.9539 H   0  0
    3.0335   -4.6131   -0.0534 H   0  0
  1  2  1  0
  2  3  1  0
  3  7  1  0
  3  4  1  0
  4  5  2  0
  5  6  1  0
  5  8  1  0
  6  7  2  0
  8  9  1  0
  9 10  2  0
  9 11  1  0
 11 16  2  0
 11 12  1  0
 12 13  2  0
 13 14  1  0
 14 15  2  0
 15 16  1  0
 16 17  1  0
 17 18  1  0
  1 19  1  0
  1 20  1  0
  1 21  1  0
  2 22  1  0
  2 23  1  0
  4 24  1  0
  6 25  1  0
  8 26  1  0
 12 27  1  0
 13 28  1  0
 14 29  1  0
 18 30  1  0
 18 31  1  0
 18 32  1  0
M  END
> <Name>
ZINC27923389

> <reference>
BDB50279824

> <quality>
0.717

> <status>
decoy

$$$$
ZINC02555729
  SciTegic06061311253D

 21 22  0  0  0  0            999 V2000
    4.3693    0.3166   -3.4989 C   0  0
    5.0226    1.4439   -3.2202 N   0  0
    4.8259    1.7732   -1.9694 C   0  0
    4.0346    0.8403   -1.4120 N   0  0
    3.7491   -0.0916   -2.4232 N   0  0
    3.5593    0.8060   -0.0266 C   0  0
    2.0546    0.7229   -0.0137 C   0  0
    1.2219    1.7629   -0.0001 N   0  0
   -0.0162    1.3401    0.0094 C   0  0
    0.0021   -0.0041    0.0020 N   0  0
    1.3549   -0.3811   -0.0129 N   0  0
   -1.2478    2.2084    0.0202 C   0  0
   -1.1846    3.1355    1.1618 C   0  0
   -1.1357    3.8510    2.0428 N   0  0
    4.3543   -0.1886   -4.4759 H   0  0
    5.2364    2.6589   -1.4623 H   0  0
    3.8798    1.7200    0.4949 H   0  0
    3.9789   -0.0736    0.4835 H   0  0
   -0.8139   -0.6326    0.0064 H   0  0
   -2.1430    1.5758    0.1117 H   0  0
   -1.2994    2.7835   -0.9161 H   0  0
  1  5  2  0
  1  2  1  0
  2  3  2  0
  3  4  1  0
  4  5  1  0
  4  6  1  0
  6  7  1  0
  7 11  2  0
  7  8  1  0
  8  9  2  0
  9 10  1  0
  9 12  1  0
 10 11  1  0
 12 13  1  0
 13 14  3  0
  1 15  1  0
  3 16  1  0
  6 17  1  0
  6 18  1  0
 10 19  1  0
 12 20  1  0
 12 21  1  0
M  END
> <Name>
ZINC02555729

> <reference>
BDB50279824

> <quality>
0.717

> <status>
decoy

$$$$
ZINC23506435
  SciTegic06061311253D

 40 42  0  0  0  0            999 V2000
    3.0201    1.4686    1.4187 C   0  0
    2.4818    1.4971   -0.0131 C   0  0
    1.0752    1.9066    0.0020 N   0  0
   -0.0126    1.0758    0.0080 C   0  0
   -1.1046    1.8638    0.0167 C   0  0
   -0.6947    3.1409    0.0248 N   0  0
    0.6098    3.1743    0.0128 C   0  0
    1.4565    4.4209    0.0117 C   0  0
    1.7185    4.8320   -1.3698 N   0  0
    0.8699    5.6771   -1.9877 C   0  0
   -0.1140    6.0988   -1.3996 O   0  0
    1.1230    6.0687   -3.3094 C   0  0
    2.2436    5.5764   -3.9523 C   0  0
    3.1047    4.6932   -3.2653 C   0  0
    2.8504    4.3486   -2.0344 N   0  0
    2.5184    5.9454   -5.2572 N   0  0
    2.4695    4.7823   -6.1550 C   0  0
    2.7197    5.2437   -7.5932 C   0  0
    3.9752    5.9255   -7.6582 O   0  0
    4.0573    7.0641   -6.7967 C   0  0
    3.8208    6.6211   -5.3504 C   0  0
    2.4369    0.7527    2.0166 H   0  0
    2.9356    2.4712    1.8633 H   0  0
    4.0762    1.1612    1.4081 H   0  0
    2.5663    0.4945   -0.4578 H   0  0
    3.0653    2.2134   -0.6101 H   0  0
    0.0023   -0.0241    0.0061 H   0  0
   -2.1496    1.5203    0.0171 H   0  0
    0.9241    5.2264    0.5387 H   0  0
    2.4105    4.2180    0.5203 H   0  0
    0.4400    6.7578   -3.8277 H   0  0
    3.9955    4.2936   -3.7720 H   0  0
    1.4793    4.3077   -6.0895 H   0  0
    3.2448    4.0591   -5.8619 H   0  0
    2.7420    4.3696   -8.2607 H   0  0
    1.9155    5.9258   -7.9063 H   0  0
    5.0554    7.5185   -6.8824 H   0  0
    3.2917    7.7997   -7.0844 H   0  0
    3.8256    7.5020   -4.6917 H   0  0
    4.6182    5.9279   -5.0445 H   0  0
  1  2  1  0
  2  3  1  0
  3  7  1  0
  3  4  1  0
  4  5  2  0
  5  6  1  0
  6  7  2  0
  7  8  1  0
  8  9  1  0
  9 15  1  0
  9 10  1  0
 10 11  2  0
 10 12  1  0
 12 13  2  0
 13 14  1  0
 13 16  1  0
 14 15  2  0
 16 21  1  0
 16 17  1  0
 17 18  1  0
 18 19  1  0
 19 20  1  0
 20 21  1  0
  1 22  1  0
  1 23  1  0
  1 24  1  0
  2 25  1  0
  2 26  1  0
  4 27  1  0
  5 28  1  0
  8 29  1  0
  8 30  1  0
 12 31  1  0
 14 32  1  0
 17 33  1  0
 17 34  1  0
 18 35  1  0
 18 36  1  0
 20 37  1  0
 20 38  1  0
 21 39  1  0
 21 40  1  0
M  END
> <Name>
ZINC23506435

> <reference>
BDB50279824

> <quality>
0.717

> <status>
decoy

$$$$
ZINC28820927
  SciTegic06061311253D

 31 33  0  0  0  0            999 V2000
    1.8969    0.2139   -2.4316 C   0  0
    1.3443    0.4830   -1.0556 C   0  0
    0.6288    1.5680   -0.6801 C   0  0
    0.3112    1.4277    0.6757 C   0  0
    0.8167    0.2992    1.1029 N   0  0
    1.4750   -0.3199    0.0324 N   0  0
    2.1463   -1.5458    0.0759 C   0  0
    1.5917   -2.6161    0.7691 C   0  0
    2.2478   -3.8263    0.8099 C   0  0
    3.4770   -3.9748    0.1629 C   0  0
    4.0338   -2.8957   -0.5282 C   0  0
    3.3696   -1.6899   -0.5693 C   0  0
    4.1859   -5.2693    0.2088 C   0  0
    5.2554   -5.3971   -0.3551 O   0  0
    3.6474   -6.3092    0.8759 N   0  5
    4.3200   -7.5375    0.9195 N   0  0
    5.5187   -7.8436    0.3367 C   0  0
    5.7833   -9.0867    0.6238 N   0  0
    4.8370   -9.5862    1.3357 N   0  0
    3.9120   -8.6790    1.5476 C   0  0
    2.4256   -8.8937    2.4692 S   0  5
    1.4819   -0.7776   -2.6656 H   0  0
    2.9664    0.0521   -2.2317 H   0  0
    1.6946    0.9766   -3.1980 H   0  0
    0.3464    2.4120   -1.3266 H   0  0
   -0.2652    2.1442    1.2793 H   0  0
    0.6279   -2.4960    1.2854 H   0  0
    1.8045   -4.6750    1.3513 H   0  0
    5.0015   -3.0091   -1.0388 H   0  0
    3.8073   -0.8398   -1.1132 H   0  0
    6.1437   -7.1659   -0.2633 H   0  0
  1  2  1  0
  2  6  1  0
  2  3  2  0
  3  4  1  0
  4  5  2  0
  5  6  1  0
  6  7  1  0
  7 12  2  0
  7  8  1  0
  8  9  2  0
  9 10  1  0
 10 11  2  0
 10 13  1  0
 11 12  1  0
 13 14  2  0
 13 15  1  0
 15 16  1  0
 16 20  1  0
 16 17  1  0
 17 18  2  0
 18 19  1  0
 19 20  2  0
 20 21  1  0
  1 22  1  0
  1 23  1  0
  1 24  1  0
  3 25  1  0
  4 26  1  0
  8 27  1  0
  9 28  1  0
 11 29  1  0
 12 30  1  0
 17 31  1  0
M  CHG  2  15  -1  21  -1
M  END
> <Name>
ZINC28820927

> <reference>
BDB50279824

> <quality>
0.716

> <status>
decoy

$$$$
ZINC26079289
  SciTegic06061311253D

 47 48  0  0  0  0            999 V2000
   11.2177    1.0742   -2.5417 C   0  0
   11.4788   -0.0901   -1.6917 N   0  0
   11.0048   -0.0798   -0.1050 S   0  0
   11.4622    1.1469    0.4476 O   0  0
   11.3698   -1.3421    0.4361 O   0  0
    9.2441   -0.0146   -0.0876 C   0  0
    8.4633    1.1450   -0.0787 C   0  0
    7.1437    0.7418   -0.0622 C   0  0
    7.1319   -0.6351   -0.0695 N   0  0
    8.4062   -1.0793   -0.0848 C   0  0
    5.9341   -1.4786   -0.0625 C   0  0
    5.9700    1.6182   -0.0463 C   0  0
    6.1130    2.8260   -0.0411 O   0  0
    4.7306    1.0857   -0.0373 O   0  0
    3.6144    2.0142   -0.0216 C   0  0
    2.3197    1.2430   -0.0134 C   0  0
    2.3361    0.0307   -0.0201 O   0  0
    1.1435    1.9009    0.0013 N   0  0
   -0.0144    1.2112    0.0087 C   0  0
    0.0021   -0.0041    0.0020 O   0  0
   -1.3017    1.9313    0.0187 C   0  0
   -1.3228    3.3289    0.0322 C   0  0
   -2.5266    3.9972    0.0357 C   0  0
   -3.7198    3.2839    0.0374 C   0  0
   -3.7032    1.8939    0.0299 C   0  0
   -2.5038    1.2179    0.0205 C   0  0
   -4.9041    3.9464    0.0462 O   0  0
   -4.8487    5.3743    0.0536 C   0  0  1  0  0  0
   -4.1666    5.8085    1.1953 F   0  0
   -4.1766    5.8209   -1.0892 F   0  0
   11.6880    1.9142   -2.0096 H   0  0
   10.1310    1.2288   -2.4702 H   0  0
   11.5670    0.9790   -3.5804 H   0  0
   11.9572   -0.9150   -2.0810 H   0  0
    8.8310    2.1817   -0.0839 H   0  0
    8.7147   -2.1351   -0.0936 H   0  0
    5.3731   -1.1070   -0.9327 H   0  0
    5.3900   -1.1165    0.8223 H   0  0
    6.0989   -2.5662   -0.0699 H   0  0
    3.6544    2.6526   -0.9165 H   0  0
    3.6722    2.6421    0.8797 H   0  0
    1.1295    2.9308    0.0069 H   0  0
   -0.3791    3.8940    0.0400 H   0  0
   -2.5442    5.0971    0.0372 H   0  0
   -4.6496    1.3333    0.0315 H   0  0
   -2.4915    0.1180    0.0144 H   0  0
   -5.8708    5.7809    0.0602 H   0  0
  1  2  1  0
  2  3  1  0
  3  4  2  0
  3  5  2  0
  3  6  1  0
  6 10  2  0
  6  7  1  0
  7  8  2  0
  8  9  1  0
  8 12  1  0
  9 10  1  0
  9 11  1  0
 12 13  2  0
 12 14  1  0
 14 15  1  0
 15 16  1  0
 16 17  2  0
 16 18  1  0
 18 19  1  0
 19 20  2  0
 19 21  1  0
 21 26  2  0
 21 22  1  0
 22 23  2  0
 23 24  1  0
 24 25  2  0
 24 27  1  0
 25 26  1  0
 27 28  1  0
 28 29  1  0
 28 30  1  0
  1 31  1  0
  1 32  1  0
  1 33  1  0
  2 34  1  0
  7 35  1  0
 10 36  1  0
 11 37  1  0
 11 38  1  0
 11 39  1  0
 15 40  1  0
 15 41  1  0
 18 42  1  0
 22 43  1  0
 23 44  1  0
 25 45  1  0
 26 46  1  0
 28 47  1  0
M  END
> <Name>
ZINC26079289

> <reference>
BDB50023298

> <quality>
0.765

> <status>
decoy

$$$$
ZINC30645160
  SciTegic06061311253D

 59 61  0  0  1  0            999 V2000
   -0.6153    3.1672   -1.9633 C   0  0
   -0.8975    1.8855   -1.3122 N   0  0
   -1.9229    1.0474   -1.8134 O   0  0
   -3.2071    1.2913   -1.2359 C   0  0
   -0.0172    1.4168    0.0098 S   0  0
    0.0021   -0.0041    0.0020 O   0  0
    1.1718    2.1948    0.0027 O   0  0
   -0.9267    1.9002    1.4394 C   0  0
   -0.7146    3.1464    2.0018 C   0  0
   -1.4275    3.5333    3.1178 C   0  0
   -2.3565    2.6602    3.6859 C   0  0
   -2.5616    1.4023    3.1169 C   0  0
   -1.8458    1.0298    1.9979 C   0  0
   -3.1204    3.0662    4.8848 C   0  0
   -3.9291    2.3039    5.3772 O   0  0
   -2.9201    4.2816    5.4319 N   0  0
   -3.6770    4.6839    6.6199 C   0  0
   -3.2626    6.0972    7.0342 C   0  0
   -4.0531    6.5174    8.2749 C   0  0
   -3.6553    7.8744    8.6727 N   0  0
   -2.2578    7.9018    9.1266 C   0  0
   -1.8592    9.3424    9.4554 C   0  0
   -2.7568    9.8720   10.4914 N   0  0
   -4.1543    9.8447   10.0375 C   0  0
   -4.5530    8.4040    9.7087 C   0  0
   -2.3820   11.1506   10.8662 C   0  0
   -3.2628   12.1360   10.7738 N   0  0
   -2.9385   13.3682   11.1290 C   0  0
   -1.6570   13.6235   11.5910 C   0  0
   -0.7589   12.5707   11.6697 C   0  0
   -1.1492   11.3610   11.3037 N   0  0
   -1.5726    3.7088   -1.9506 H   0  0
   -0.4026    2.9121   -3.0119 H   0  0
    0.1990    3.7400   -1.4956 H   0  0
   -3.4637    2.3433   -1.4296 H   0  0
   -3.1144    1.1500   -0.1490 H   0  0
   -3.9717    0.6196   -1.6532 H   0  0
    0.0241    3.8302    1.5582 H   0  0
   -1.2641    4.5277    3.5589 H   0  0
   -3.2923    0.7095    3.5597 H   0  0
   -2.0062    0.0386    1.5487 H   0  0
   -2.2348    4.9276    5.0147 H   0  0
   -4.7529    4.6700    6.3914 H   0  0
   -3.4679    3.9851    7.4433 H   0  0
   -2.1868    6.1117    7.2632 H   0  0
   -3.4720    6.7977    6.2123 H   0  0
   -3.8440    5.8186    9.0983 H   0  0
   -5.1290    6.5034    8.0464 H   0  0
   -1.6047    7.5137    8.3311 H   0  0
   -2.1517    7.2779   10.0263 H   0  0
   -0.8229    9.3615    9.8237 H   0  0
   -1.9390    9.9621    8.5501 H   0  0
   -4.8066   10.2327   10.8337 H   0  0
   -4.2614   10.4686    9.1379 H   0  0
   -5.5895    8.3856    9.3408 H   0  0
   -4.4738    7.7862   10.6153 H   0  0
   -3.6770   14.1804   11.0586 H   0  0
   -1.3591   14.6397   11.8888 H   0  0
    0.2659   12.7391   12.0321 H   0  0
  1  2  1  0
  2  3  1  0
  2  5  1  0
  3  4  1  0
  5  6  2  0
  5  7  2  0
  5  8  1  0
  8 13  2  0
  8  9  1  0
  9 10  2  0
 10 11  1  0
 11 12  2  0
 11 14  1  0
 12 13  1  0
 14 15  2  0
 14 16  1  0
 16 17  1  0
 17 18  1  0
 18 19  1  0
 19 20  1  0
 20 25  1  0
 20 21  1  0
 21 22  1  0
 22 23  1  0
 23 24  1  0
 23 26  1  0
 24 25  1  0
 26 31  2  0
 26 27  1  0
 27 28  2  0
 28 29  1  0
 29 30  2  0
 30 31  1  0
  1 32  1  0
  1 33  1  0
  1 34  1  0
  4 35  1  0
  4 36  1  0
  4 37  1  0
  9 38  1  0
 10 39  1  0
 12 40  1  0
 13 41  1  0
 16 42  1  0
 17 43  1  0
 17 44  1  0
 18 45  1  0
 18 46  1  0
 19 47  1  0
 19 48  1  0
 21 49  1  0
 21 50  1  0
 22 51  1  0
 22 52  1  0
 24 53  1  0
 24 54  1  0
 25 55  1  0
 25 56  1  0
 28 57  1  0
 29 58  1  0
 30 59  1  0
M  END
> <Name>
ZINC30645160

> <reference>
BDB50023298

> <quality>
0.762

> <status>
decoy

$$$$
ZINC17428576
  SciTegic06061311253D

 47 49  0  0  1  0            999 V2000
    7.5944    1.5257   -2.5094 C   0  0
    6.1038    1.6961   -2.6512 C   0  0
    5.6001    1.7188   -3.7492 O   0  0
    5.3357    1.8226   -1.5577 O   0  0
    3.9083    1.9833   -1.7697 C   0  0
    3.2031    2.1110   -0.4180 C   0  0  1  0  0  0
    1.6871    2.3305   -0.6182 C   0  0  2  0  0  0
    1.0367    1.5317    0.5334 C   0  0  1  0  0  0
    2.2367    0.9241    1.2932 C   0  0  2  0  0  0
    3.3024    0.8734    0.3198 O   0  0
    1.9119   -0.4244    1.7646 N   0  0
    2.1383   -1.5818    1.1041 C   0  0
    1.7252   -2.5929    1.8169 N   0  0
    1.2079   -2.1510    2.9787 C   0  0
    1.3225   -0.7520    2.9695 C   0  0
    0.8604   -0.0322    4.0741 C   0  0
    0.3310   -0.7014    5.0951 N   0  0
    0.2406   -2.0254    5.0719 C   0  0
    0.6589   -2.7445    4.0443 N   0  0
   -0.4711   -2.8532    6.4550 S   0  0
    0.2797    2.4157    1.4016 O   0  0
   -1.0454    2.4819    1.1979 C   0  0
   -1.5383    1.9287    0.2435 O   0  0
   -1.9176    3.2513    2.1562 C   0  0
    1.2626    1.8064   -1.9041 O   0  0
    1.1992    2.6751   -2.9254 C   0  0
    1.4887    3.8350   -2.7507 O   0  0
    0.7668    2.2036   -4.2898 C   0  0
    0.9766    1.7255    4.1145 S   0  0
    8.0403    2.3487   -3.0871 H   0  0
    7.8332    0.5858   -3.0285 H   0  0
    7.9323    1.5208   -1.4626 H   0  0
    3.7257    2.8901   -2.3650 H   0  0
    3.5152    1.1071   -2.3061 H   0  0
    3.6782    2.9507    0.1103 H   0  0
    1.4075    3.3943   -0.6071 H   0  0
    0.3314    0.7678    0.1742 H   0  0
    2.5105    1.5148    2.1799 H   0  0
    2.6032   -1.6596    0.1102 H   0  0
   -1.7255   -2.3228    6.6032 H   0  0
   -1.5011    4.2693    2.1700 H   0  0
   -1.7238    2.8052    3.1428 H   0  0
   -2.9851    3.2377    1.8913 H   0  0
   -0.2237    1.7502   -4.1368 H   0  0
    1.4622    1.3911   -4.5470 H   0  0
    0.7517    2.9997   -5.0488 H   0  0
    0.3136    2.1491    2.9929 H   0  0
  1  2  1  0
  2  3  2  0
  2  4  1  0
  4  5  1  0
  5  6  1  0
  6 10  1  0
  6  7  1  0
  7  8  1  0
  7 25  1  0
  8  9  1  0
  8 21  1  0
  9 10  1  0
  9 11  1  0
 11 15  1  0
 11 12  1  0
 12 13  2  0
 13 14  1  0
 14 19  2  0
 14 15  1  0
 15 16  2  0
 16 17  1  0
 16 29  1  0
 17 18  2  0
 18 19  1  0
 18 20  1  0
 21 22  1  0
 22 23  2  0
 22 24  1  0
 25 26  1  0
 26 27  2  0
 26 28  1  0
  1 30  1  0
  1 31  1  0
  1 32  1  0
  5 33  1  0
  5 34  1  0
  6 35  1  0
  7 36  1  0
  8 37  1  0
  9 38  1  0
 12 39  1  0
 20 40  1  0
 24 41  1  0
 24 42  1  0
 24 43  1  0
 28 44  1  0
 28 45  1  0
 28 46  1  0
 29 47  1  0
M  END
> <Name>
ZINC17428576

> <reference>
BDB50023298

> <quality>
0.761

> <status>
decoy

$$$$
ZINC25206533
  SciTegic06061311253D

 47 49  0  0  1  0            999 V2000
    1.5755    5.3244   -3.8471 C   0  0
    1.4689    4.4524   -2.8753 C   0  0
    2.5465    4.3580   -1.8261 C   0  0
    1.9495    4.5142   -0.4975 N   0  0
    1.4614    3.5242    0.3100 C   0  0
    1.0177    4.0925    1.3954 N   0  0
    1.1989    5.3634    1.3337 N   0  0
    1.7644    5.6784    0.1915 C   0  0
    2.2016    7.2971   -0.3499 S   0  0
    1.6519    8.2651    1.0773 C   0  0
    1.9334    9.7252    0.8325 C   0  0
    2.4544   10.0767   -0.2048 O   0  0
    1.6063   10.6403    1.7662 N   0  0
    1.8680   11.9977    1.5387 N   0  0
    1.5408   12.9129    2.4724 C   0  0
    1.0180   12.5601    3.5133 O   0  0
    1.8147   14.3331    2.2343 C   0  0
    1.5602   15.4214    3.0541 C   0  0
    1.9224   16.6582    2.5817 C   0  0
    2.5020   16.7567    1.3566 C   0  0
    2.5695   15.1106    0.8171 S   0  0
    1.4355    2.0499   -0.0006 C   0  0  2  0  0  0
   -0.0190    1.5512    0.0106 C   0  0
    0.0021   -0.0041    0.0020 C   0  0
    1.3904   -0.3288    1.1691 S   0  0
    0.8654   -0.4839    2.4804 O   0  0
    2.2239   -1.3430    0.6252 O   0  0
    2.2633    1.2864    1.0612 C   0  0
    2.4516    5.9877   -3.8973 H   0  0
    0.7889    5.3933   -4.6130 H   0  0
    0.5928    3.7891   -2.8252 H   0  0
    3.0388    3.3766   -1.8932 H   0  0
    3.2893    5.1528   -1.9892 H   0  0
    2.1923    7.9340    1.9764 H   0  0
    0.5715    8.1202    1.2246 H   0  0
    1.1639   10.3417    2.6471 H   0  0
    2.3105   12.2962    0.6578 H   0  0
    1.0885   15.2992    4.0403 H   0  0
    1.7456   17.5590    3.1877 H   0  0
    2.8452   17.6617    0.8339 H   0  0
    1.8710    1.8722   -0.9950 H   0  0
   -0.5439    1.9181   -0.8837 H   0  0
   -0.5258    1.9086    0.9192 H   0  0
    0.2551   -0.3873   -0.9976 H   0  0
   -0.9348   -0.4103    0.4110 H   0  0
    3.2938    1.1314    0.7092 H   0  0
    2.2169    1.8015    2.0320 H   0  0
  1  2  2  0
  2  3  1  0
  3  4  1  0
  4  8  1  0
  4  5  1  0
  5  6  2  0
  5 22  1  0
  6  7  1  0
  7  8  2  0
  8  9  1  0
  9 10  1  0
 10 11  1  0
 11 12  2  0
 11 13  1  0
 13 14  1  0
 14 15  1  0
 15 16  2  0
 15 17  1  0
 17 21  1  0
 17 18  2  0
 18 19  1  0
 19 20  2  0
 20 21  1  0
 22 28  1  0
 22 23  1  0
 23 24  1  0
 24 25  1  0
 25 26  2  0
 25 27  2  0
 25 28  1  0
  1 29  1  0
  1 30  1  0
  2 31  1  0
  3 32  1  0
  3 33  1  0
 10 34  1  0
 10 35  1  0
 13 36  1  0
 14 37  1  0
 18 38  1  0
 19 39  1  0
 20 40  1  0
 22 41  1  0
 23 42  1  0
 23 43  1  0
 24 44  1  0
 24 45  1  0
 28 46  1  0
 28 47  1  0
M  END
> <Name>
ZINC25206533

> <reference>
BDB50023298

> <quality>
0.754

> <status>
decoy

$$$$
ZINC10834126
  SciTegic06061311253D

 56 58  0  0  1  0            999 V2000
   -1.9287    1.0851    1.6837 C   0  0
   -1.0753    1.8524    0.8323 O   0  0
   -0.1123    1.1755    0.1512 C   0  0
    0.0070   -0.1973    0.3002 C   0  0
    0.9859   -0.8894   -0.3997 C   0  0
    1.8463   -0.2073   -1.2490 C   0  0
    1.7290    1.1656   -1.3986 C   0  0
    0.7487    1.8592   -0.6990 C   0  0
    0.6319    3.2077   -0.8464 O   0  0
    1.3888    4.0260    0.0477 C   0  0
    2.5723    1.8336   -2.2304 O   0  0
    3.5551    1.0571   -2.9183 C   0  0
    1.1057   -2.2769   -0.2484 N   0  0
    2.3120   -2.8661   -0.3679 C   0  0
    3.3060   -2.1877   -0.5193 O   0  0
    2.4258   -4.3678   -0.3136 C   0  0
    4.0028   -6.1614   -0.7116 C   0  0
    5.4452   -6.4279   -1.0572 C   0  0
    6.3669   -6.9571   -0.2326 C   0  0
    7.5752   -7.0319   -0.9630 C   0  0
    7.3216   -6.5362   -2.1875 C   0  0
    6.0300   -6.1720   -2.2389 O   0  0
    4.4747   -4.4856    0.9712 C   0  0  1  0  0  0
    4.2353   -5.6799    1.9098 C   0  0
    5.1619   -5.5167    3.1479 C   0  0
    6.7052   -4.9212    2.3363 S   0  0
    7.5321   -6.0381    2.0398 O   0  0
    7.2348   -3.8382    3.0885 O   0  0
    5.9941   -4.2706    0.7699 C   0  0
    3.8568   -4.7362   -0.3479 N   0  0
   -1.2700    0.5680    2.3969 H   0  0
   -2.3986    0.3229    1.0448 H   0  0
   -2.6803    1.7008    2.1994 H   0  0
   -0.6742   -0.7386    0.9733 H   0  0
    2.6215   -0.7566   -1.8035 H   0  0
    2.4412    3.7329   -0.0808 H   0  0
    1.0807    3.7402    1.0643 H   0  0
    1.2428    5.1013   -0.1326 H   0  0
    3.0035    0.2959   -3.4895 H   0  0
    4.1388    0.5397   -2.1427 H   0  0
    4.1983    1.6660   -3.5707 H   0  0
    0.2720   -2.8468   -0.0458 H   0  0
    1.9725   -4.7384    0.6176 H   0  0
    1.9114   -4.8090   -1.1800 H   0  0
    3.7045   -6.7907    0.1399 H   0  0
    3.3679   -6.3862   -1.5813 H   0  0
    6.2105   -7.2713    0.8099 H   0  0
    8.5379   -7.4208   -0.5997 H   0  0
    8.0489   -6.4447   -3.0077 H   0  0
    4.0232   -3.5922    1.4273 H   0  0
    3.1843   -5.6907    2.2341 H   0  0
    4.4789   -6.6169    1.3875 H   0  0
    4.7736   -4.7444    3.8281 H   0  0
    5.3435   -6.4873    3.6325 H   0  0
    6.2239   -3.1993    0.6721 H   0  0
    6.3588   -4.8647   -0.0811 H   0  0
  1  2  1  0
  2  3  1  0
  3  8  2  0
  3  4  1  0
  4  5  2  0
  5  6  1  0
  5 13  1  0
  6  7  2  0
  7  8  1  0
  7 11  1  0
  8  9  1  0
  9 10  1  0
 11 12  1  0
 13 14  1  0
 14 15  2  0
 14 16  1  0
 16 30  1  0
 17 18  1  0
 17 30  1  0
 18 22  1  0
 18 19  2  0
 19 20  1  0
 20 21  2  0
 21 22  1  0
 23 29  1  0
 23 24  1  0
 23 30  1  0
 24 25  1  0
 25 26  1  0
 26 27  2  0
 26 28  2  0
 26 29  1  0
  1 31  1  0
  1 32  1  0
  1 33  1  0
  4 34  1  0
  6 35  1  0
 10 36  1  0
 10 37  1  0
 10 38  1  0
 12 39  1  0
 12 40  1  0
 12 41  1  0
 13 42  1  0
 16 43  1  0
 16 44  1  0
 17 45  1  0
 17 46  1  0
 19 47  1  0
 20 48  1  0
 21 49  1  0
 23 50  1  0
 24 51  1  0
 24 52  1  0
 25 53  1  0
 25 54  1  0
 29 55  1  0
 29 56  1  0
M  END
> <Name>
ZINC10834126

> <reference>
BDB50023298

> <quality>
0.751

> <status>
decoy

$$$$
ZINC13810505
  SciTegic06061311253D

 59 61  0  0  1  0            999 V2000
    9.7036    1.6871   -4.0949 C   0  0
    9.3796    1.8504   -2.6085 C   0  0
    7.9597    2.1079   -2.4480 O   0  0
    7.5073    2.2768   -1.1912 C   0  0
    8.2780    2.2109   -0.2541 O   0  0
    6.1997    2.5191   -0.9726 N   0  0
    5.6846    2.7067    0.3922 C   0  0
    4.4828    1.7769    0.5911 C   0  0
    3.5046    2.0106   -0.4796 N   0  0
    4.0651    1.6767   -1.7957 C   0  0
    5.2498    2.6024   -2.0924 C   0  0
    2.3333    1.3061   -0.2451 C   0  0
    1.1249    2.0020   -0.0620 C   0  0
    0.0079    1.3529    0.1602 N   0  0
    0.0138    0.0148    0.2141 C   0  0
   -1.1700   -0.7045    0.4504 C   0  0
   -1.1354   -2.0644    0.4998 C   0  0
    0.0595   -2.7577    0.3192 C   0  0
    1.2255   -2.0942    0.0887 C   0  0
    1.2286   -0.6902    0.0304 C   0  0
    2.3608   -0.0121   -0.1957 N   0  0
    1.1141    3.5078   -0.1220 C   0  5
    0.5042    4.0434    1.1060 C   0  0
    0.0334    4.4567    2.0537 N   0  0
    0.3142    3.9572   -1.3175 C   0  0
   -0.1968    3.1357   -2.0488 O   0  0
    0.1667    5.2721   -1.5739 N   0  0
   -0.6109    5.7090   -2.7361 C   0  0
   -0.6219    7.2378   -2.7970 C   0  0
   -1.4340    7.6941   -4.0107 C   0  0
   -1.4442    9.1219   -4.0676 O   0  0
   -2.1800    9.6544   -5.1708 C   0  0
    9.4356    2.6083   -4.6330 H   0  0
    9.1299    0.8432   -4.5057 H   0  0
   10.7792    1.4920   -4.2172 H   0  0
    9.6476    0.9287   -2.0713 H   0  0
    9.9533    2.6942   -2.1976 H   0  0
    6.4693    2.4553    1.1209 H   0  0
    5.3682    3.7514    0.5283 H   0  0
    4.0155    1.9826    1.5654 H   0  0
    4.8191    0.7301    0.5582 H   0  0
    3.2939    1.8096   -2.5688 H   0  0
    4.4081    0.6316   -1.7943 H   0  0
    5.7437    2.2819   -3.0216 H   0  0
    4.8915    3.6372   -2.1966 H   0  0
   -2.1209   -0.1707    0.5949 H   0  0
   -2.0642   -2.6240    0.6850 H   0  0
    0.0607   -3.8568    0.3635 H   0  0
    2.1615   -2.6548   -0.0514 H   0  0
    0.6007    5.9698   -0.9528 H   0  0
   -0.1549    5.3093   -3.6539 H   0  0
   -1.6430    5.3389   -2.6483 H   0  0
   -1.0782    7.6382   -1.8797 H   0  0
    0.4095    7.6098   -2.8860 H   0  0
   -0.9780    7.2943   -4.9285 H   0  0
   -2.4661    7.3240   -3.9228 H   0  0
   -3.2118    9.2813   -5.0922 H   0  0
   -1.7337    9.2520   -6.0922 H   0  0
   -2.1616   10.7542   -5.1758 H   0  0
  1  2  1  0
  2  3  1  0
  3  4  1  0
  4  5  2  0
  4  6  1  0
  6 11  1  0
  6  7  1  0
  7  8  1  0
  8  9  1  0
  9 10  1  0
  9 12  1  0
 10 11  1  0
 12 21  1  0
 12 13  2  0
 13 14  1  0
 13 22  1  0
 14 15  2  0
 15 20  1  0
 15 16  1  0
 16 17  2  0
 17 18  1  0
 18 19  2  0
 19 20  1  0
 20 21  2  0
 22 23  1  0
 22 25  1  0
 23 24  3  0
 25 26  2  0
 25 27  1  0
 27 28  1  0
 28 29  1  0
 29 30  1  0
 30 31  1  0
 31 32  1  0
  1 33  1  0
  1 34  1  0
  1 35  1  0
  2 36  1  0
  2 37  1  0
  7 38  1  0
  7 39  1  0
  8 40  1  0
  8 41  1  0
 10 42  1  0
 10 43  1  0
 11 44  1  0
 11 45  1  0
 16 46  1  0
 17 47  1  0
 18 48  1  0
 19 49  1  0
 27 50  1  0
 28 51  1  0
 28 52  1  0
 29 53  1  0
 29 54  1  0
 30 55  1  0
 30 56  1  0
 32 57  1  0
 32 58  1  0
 32 59  1  0
M  CHG  1  22  -1
M  END
> <Name>
ZINC13810505

> <reference>
BDB50023298

> <quality>
0.744

> <status>
decoy

$$$$
ZINC09353059
  SciTegic06061311253D

 58 60  0  0  1  0            999 V2000
   -2.8216    1.3037   -0.2597 C   0  0
   -2.0342    0.7138   -1.4012 C   0  0
   -0.7813    0.0670   -1.3120 C   0  0
   -0.4316   -0.3197   -2.5941 C   0  0
   -1.4052    0.0670   -3.4334 N   0  0
   -2.3948    0.7058   -2.7169 C   0  0
   -3.6270    1.2741   -3.2730 C   0  0
   -4.4314    1.8165   -2.5399 O   0  0
   -3.8681    1.1951   -4.5977 O   0  0
   -5.1077    1.7791   -5.0780 C   0  0
    0.8281   -1.0504   -2.9819 C   0  0
    0.0028   -0.1589   -0.0840 C   0  0
   -0.3700    0.3173    0.9723 O   0  0
    1.2322   -0.9577   -0.1352 C   0  0
    1.3158   -2.3046   -0.2282 C   0  0
    2.7388   -2.7026   -0.2516 C   0  0
    3.1418   -3.8461   -0.3301 O   0  0
    3.5221   -1.6115   -0.1738 N   0  0
    2.6490   -0.4340   -0.1010 C   0  0  2  0  0  0
    2.8951    0.3111    1.1855 C   0  0
    3.2072   -0.3853    2.3382 C   0  0
    3.4378    0.2973    3.5175 C   0  0
    3.3458    1.6785    3.5467 C   0  0
    3.0280    2.3746    2.3928 C   0  0
    2.8029    1.6902    1.2134 C   0  0
    3.5664    2.3465    4.7001 F   0  0
    4.9871   -1.6002   -0.1696 C   0  0
    5.5005   -1.4968   -1.6072 C   0  0
    6.9694   -1.4856   -1.6029 N   0  3
    7.5044   -2.7702   -1.1323 C   0  0
    7.4972   -1.1508   -2.9323 C   0  0
    0.2633   -3.1529   -0.2903 O   0  5
   -3.7958    0.8031   -0.3617 H   0  0
   -2.9818    2.3393   -0.5941 H   0  0
   -2.3752    1.2187    0.7420 H   0  0
   -1.4119   -0.0888   -4.4515 H   0  0
   -5.0918    2.8354   -4.7714 H   0  0
   -5.9190    1.2797   -4.5281 H   0  0
   -5.2317    1.6748   -6.1660 H   0  0
    0.8007   -1.9373   -2.3318 H   0  0
    1.6170   -0.4025   -2.5721 H   0  0
    0.9498   -1.2824   -4.0503 H   0  0
    2.8398    0.2615   -0.9316 H   0  0
    3.2720   -1.4832    2.3167 H   0  0
    3.6943   -0.2565    4.4326 H   0  0
    2.9547    3.4719    2.4148 H   0  0
    2.5503    2.2430    0.2966 H   0  0
    5.3456   -0.7369    0.4102 H   0  0
    5.3608   -2.5288    0.2865 H   0  0
    5.1288   -0.5680   -2.0646 H   0  0
    5.1426   -2.3601   -2.1875 H   0  0
    7.2783   -0.7546   -0.9464 H   0  0
    7.1452   -3.5697   -1.7970 H   0  0
    7.1356   -2.9568   -0.1129 H   0  0
    8.6042   -2.7472   -1.1344 H   0  0
    7.1232   -0.1582   -3.2236 H   0  0
    7.1378   -1.8974   -3.6558 H   0  0
    8.5970   -1.1461   -2.9141 H   0  0
  1  2  1  0
  2  6  2  0
  2  3  1  0
  3  4  2  0
  3 12  1  0
  4  5  1  0
  4 11  1  0
  5  6  1  0
  6  7  1  0
  7  8  2  0
  7  9  1  0
  9 10  1  0
 12 13  2  0
 12 14  1  0
 14 19  1  0
 14 15  2  0
 15 16  1  0
 15 32  1  0
 16 17  2  0
 16 18  1  0
 18 19  1  0
 18 27  1  0
 19 20  1  0
 20 25  2  0
 20 21  1  0
 21 22  2  0
 22 23  1  0
 23 24  2  0
 23 26  1  0
 24 25  1  0
 27 28  1  0
 28 29  1  0
 29 30  1  0
 29 31  1  0
  1 33  1  0
  1 34  1  0
  1 35  1  0
  5 36  1  0
 10 37  1  0
 10 38  1  0
 10 39  1  0
 11 40  1  0
 11 41  1  0
 11 42  1  0
 19 43  1  0
 21 44  1  0
 22 45  1  0
 24 46  1  0
 25 47  1  0
 27 48  1  0
 27 49  1  0
 28 50  1  0
 28 51  1  0
 29 52  1  0
 30 53  1  0
 30 54  1  0
 30 55  1  0
 31 56  1  0
 31 57  1  0
 31 58  1  0
M  CHG  2  29   1  32  -1
M  END
> <Name>
ZINC09353059

> <reference>
BDB50023298

> <quality>
0.735

> <status>
decoy

$$$$
ZINC28250205
  SciTegic06061311253D

 47 48  0  0  0  0            999 V2000
   -0.0176    1.4478    0.0100 C   0  0
    0.0021   -0.0041    0.0020 O   0  0
    0.6203   -0.6130    1.0324 C   0  0
    1.1291    0.0507    1.9134 O   0  0
    0.6796   -2.0881    1.0908 C   0  0
    0.0965   -2.8510    0.0810 C   0  0
    0.1575   -4.2418    0.1438 C   0  0
    0.8021   -4.8619    1.2175 C   0  0
    1.3774   -4.0998    2.2149 C   0  0
    1.3256   -2.7213    2.1560 C   0  0
    2.1871   -4.8900    3.5656 S   0  0
    2.1691   -3.9672    4.6461 O   0  0
    1.6295   -6.1931    3.6673 O   0  0
    3.7747   -5.0867    3.1376 N   0  0
    4.5874   -3.9687    2.9367 C   0  0
    4.5563   -2.9143    3.8418 C   0  0
    5.3605   -1.8086    3.6444 C   0  0
    6.1979   -1.7466    2.5470 C   0  0
    6.2332   -2.7968    1.6379 C   0  0
    5.4310   -3.9119    1.8366 C   0  0
    7.0796   -2.7332    0.5287 N   0  0
    8.6450   -2.2241    0.7097 S   0  0
    9.1921   -2.2609   -0.6012 O   0  0
    8.5474   -0.9971    1.4198 O   0  0
    9.4286   -3.4871    1.7496 C   0  0
   -0.4574   -5.0589   -0.9225 C   0  0
   -0.4034   -6.2711   -0.8663 O   0  0
   -1.0780   -4.4595   -1.9570 O   0  0
   -1.6594   -5.3247   -2.9679 C   0  0
    1.0329    1.7718    0.0493 H   0  0
   -0.4989    1.7460    0.9531 H   0  0
   -0.5392    1.8693   -0.8620 H   0  0
   -0.4096   -2.3577   -0.7619 H   0  0
    0.8513   -5.9596    1.2682 H   0  0
    1.7939   -2.1201    2.9493 H   0  0
    4.1628   -6.0335    3.0196 H   0  0
    3.8906   -2.9604    4.7163 H   0  0
    5.3342   -0.9757    4.3624 H   0  0
    6.8373   -0.8649    2.3929 H   0  0
    5.4640   -4.7488    1.1235 H   0  0
    6.7301   -3.0030   -0.4019 H   0  0
    9.4258   -4.4728    1.2614 H   0  0
    8.9540   -3.5480    2.7401 H   0  0
   10.4779   -3.1935    1.9007 H   0  0
   -2.3715   -5.9789   -2.4436 H   0  0
   -0.8396   -5.9525   -3.3472 H   0  0
   -2.1468   -4.7621   -3.7777 H   0  0
  1  2  1  0
  2  3  1  0
  3  4  2  0
  3  5  1  0
  5 10  2  0
  5  6  1  0
  6  7  2  0
  7  8  1  0
  7 26  1  0
  8  9  2  0
  9 10  1  0
  9 11  1  0
 11 12  2  0
 11 13  2  0
 11 14  1  0
 14 15  1  0
 15 20  2  0
 15 16  1  0
 16 17  2  0
 17 18  1  0
 18 19  2  0
 19 20  1  0
 19 21  1  0
 21 22  1  0
 22 23  2  0
 22 24  2  0
 22 25  1  0
 26 27  2  0
 26 28  1  0
 28 29  1  0
  1 30  1  0
  1 31  1  0
  1 32  1  0
  6 33  1  0
  8 34  1  0
 10 35  1  0
 14 36  1  0
 16 37  1  0
 17 38  1  0
 18 39  1  0
 20 40  1  0
 21 41  1  0
 25 42  1  0
 25 43  1  0
 25 44  1  0
 29 45  1  0
 29 46  1  0
 29 47  1  0
M  END
> <Name>
ZINC28250205

> <reference>
BDB50023298

> <quality>
0.732

> <status>
decoy

$$$$
ZINC26505783
  SciTegic06061311253D

 56 59  0  0  0  0            999 V2000
  -10.8371   12.1897    5.2111 C   0  0
  -11.7095   11.1169    5.2021 C   0  0
  -11.2198    9.8264    5.2508 C   0  0
   -9.8501    9.6069    5.3089 C   0  0
   -8.9769   10.6862    5.3236 C   0  0
   -9.4724   11.9743    5.2685 C   0  0
   -9.3500    8.2982    5.3584 N   0  0
   -8.0458    7.9464    5.4217 C   0  0
   -7.9849    6.5949    5.4503 C   0  0
   -9.2945    6.1037    5.4114 C   0  0
  -10.1131    7.1234    5.3564 N   0  0
   -6.7286    5.7654    5.5185 C   0  0
   -6.2679    5.4643    4.1608 N   0  0
   -5.1537    4.7291    3.9747 C   0  0
   -4.5324    4.3169    4.9312 O   0  0
   -4.6799    4.4194    2.5781 C   0  0
   -3.4694    3.6202    2.6438 O   0  0
   -2.9150    3.2567    1.4766 C   0  0
   -3.4243    3.5952    0.4345 O   0  0
   -1.6574    2.4265    1.4659 C   0  0
   -1.2388    2.1534    0.0198 C   0  0
   -0.0162    1.3463    0.0094 N   0  0
    0.0021   -0.0041    0.0020 C   0  0
   -0.9515   -0.7526    0.0072 O   0  0
    1.4613   -0.3819   -0.0142 C   0  0  2  0  0  0
    1.8039   -1.2053   -1.2628 C   0  0
    2.8778   -2.2085   -0.7671 C   0  0
    2.3897   -2.5581    0.6614 C   0  0
    1.8306   -1.2257    1.2082 C   0  0
    2.1715    0.8986   -0.0139 N   0  5
    1.2223    1.8559    0.0004 C   0  0
    1.4634    3.0471    0.0041 O   0  0
  -11.2295   13.2166    5.1725 H   0  0
  -12.7946   11.2915    5.1561 H   0  0
  -11.9143    8.9734    5.2436 H   0  0
   -7.8916   10.5157    5.3791 H   0  0
   -8.7807   12.8296    5.2703 H   0  0
   -7.1884    8.6351    5.4456 H   0  0
   -9.5859    5.0431    5.4247 H   0  0
   -5.9480    6.3254    6.0543 H   0  0
   -6.9368    4.8257    6.0511 H   0  0
   -6.7955    5.8145    3.3484 H   0  0
   -5.4600    3.8590    2.0419 H   0  0
   -4.4702    5.3580    2.0443 H   0  0
   -0.8538    2.9713    1.9830 H   0  0
   -1.8426    1.4717    1.9797 H   0  0
   -2.0418    1.6082   -0.4978 H   0  0
   -1.0520    3.1072   -0.4954 H   0  0
    2.2259   -0.5550   -2.0432 H   0  0
    0.9142   -1.7475   -1.6155 H   0  0
    2.8795   -3.1085   -1.3996 H   0  0
    3.8637   -1.7225   -0.7239 H   0  0
    3.2351   -2.8950    1.2794 H   0  0
    1.5904   -3.3124    0.6142 H   0  0
    0.9342   -1.4185    1.8160 H   0  0
    2.6027   -0.7111    1.7990 H   0  0
  1  6  2  0
  1  2  1  0
  2  3  2  0
  3  4  1  0
  4  5  2  0
  4  7  1  0
  5  6  1  0
  7 11  1  0
  7  8  1  0
  8  9  2  0
  9 10  1  0
  9 12  1  0
 10 11  2  0
 12 13  1  0
 13 14  1  0
 14 15  2  0
 14 16  1  0
 16 17  1  0
 17 18  1  0
 18 19  2  0
 18 20  1  0
 20 21  1  0
 21 22  1  0
 22 31  1  0
 22 23  1  0
 23 24  2  0
 23 25  1  0
 25 29  1  0
 25 26  1  0
 25 30  1  0
 26 27  1  0
 27 28  1  0
 28 29  1  0
 30 31  1  0
 31 32  2  0
  1 33  1  0
  2 34  1  0
  3 35  1  0
  5 36  1  0
  6 37  1  0
  8 38  1  0
 10 39  1  0
 12 40  1  0
 12 41  1  0
 13 42  1  0
 16 43  1  0
 16 44  1  0
 20 45  1  0
 20 46  1  0
 21 47  1  0
 21 48  1  0
 26 49  1  0
 26 50  1  0
 27 51  1  0
 27 52  1  0
 28 53  1  0
 28 54  1  0
 29 55  1  0
 29 56  1  0
M  CHG  1  30  -1
M  END
> <Name>
ZINC26505783

> <reference>
BDB50023298

> <quality>
0.730

> <status>
decoy

$$$$
ZINC27907656
  SciTegic06061311253D

 56 58  0  0  0  0            999 V2000
    2.5490    1.5864   -0.0126 C   0  0
    1.0895    1.9614    0.0022 C   0  0
   -0.0126    1.0758    0.0080 C   0  0
   -1.0910    1.8953    0.0167 C   0  0
   -0.6154    3.1484    0.0236 O   0  0
    0.5937    3.1650    0.0126 N   0  0
   -2.5397    1.4800    0.0202 C   0  0
   -3.0049    1.3377    1.4063 N   0  0
   -2.3233    0.2228    2.0787 C   0  0
   -2.7758    0.1581    3.5393 C   0  0
   -4.2346   -0.0125    3.5904 N   0  0
   -4.9162    1.1023    2.9180 C   0  0
   -4.4636    1.1670    1.4574 C   0  0
   -4.6998   -0.1549    4.9765 C   0  0
   -4.1711   -1.4425    5.5540 C   0  0
   -3.4753   -2.1700    4.8776 O   0  0
   -4.4715   -1.7857    6.8223 N   0  0
   -3.9575   -3.0374    7.3838 C   0  0
   -4.4347   -3.1835    8.8057 C   0  0
   -5.5639   -3.7715    9.2710 C   0  0
   -5.7984   -3.7886   10.6331 C   0  0
   -4.8921   -3.2170   11.4634 C   0  0
   -3.6557   -2.6339   10.3151 S   0  0
   -4.9232   -3.0885   13.2204 S   0  0
   -4.1072   -1.9760   13.5607 O   0  0
   -6.2865   -3.1810   13.6104 O   0  0
   -4.1663   -4.4325   13.8230 N   0  0
   -2.7214   -4.4132   14.0643 C   0  0
   -4.9416   -5.6408   14.1149 C   0  0
    2.9411    2.1215    0.8648 H   0  0
    2.9255    2.1303   -0.8915 H   0  0
    2.7761    0.5101   -0.0200 H   0  0
    0.0023   -0.0241    0.0059 H   0  0
   -2.6479    0.5183   -0.5026 H   0  0
   -3.1419    2.2453   -0.4914 H   0  0
   -1.2352    0.3790    2.0391 H   0  0
   -2.5778   -0.7210    1.5742 H   0  0
   -2.2896   -0.6940    4.0368 H   0  0
   -2.4980    1.0906    4.0523 H   0  0
   -6.0042    0.9450    2.9578 H   0  0
   -4.6626    2.0466    3.4221 H   0  0
   -4.9505    2.0190    0.9604 H   0  0
   -4.7432    0.2342    0.9458 H   0  0
   -5.7995   -0.1696    4.9957 H   0  0
   -4.3339    0.6923    5.5751 H   0  0
   -5.0625   -1.1679    7.3968 H   0  0
   -4.3233   -3.8852    6.7859 H   0  0
   -2.8577   -3.0240    7.3665 H   0  0
   -6.2829   -4.2282    8.5750 H   0  0
   -6.7069   -4.2590   11.0373 H   0  0
   -2.5661   -3.5559   14.7358 H   0  0
   -2.2843   -4.1331   13.0945 H   0  0
   -2.3046   -5.3490   14.4650 H   0  0
   -5.4447   -5.8805   13.1665 H   0  0
   -5.7264   -5.3033   14.8078 H   0  0
   -4.3568   -6.4837   14.5117 H   0  0
  1  2  1  0
  2  6  2  0
  2  3  1  0
  3  4  2  0
  4  5  1  0
  4  7  1  0
  5  6  1  0
  7  8  1  0
  8 13  1  0
  8  9  1  0
  9 10  1  0
 10 11  1  0
 11 12  1  0
 11 14  1  0
 12 13  1  0
 14 15  1  0
 15 16  2  0
 15 17  1  0
 17 18  1  0
 18 19  1  0
 19 23  1  0
 19 20  2  0
 20 21  1  0
 21 22  2  0
 22 23  1  0
 22 24  1  0
 24 25  2  0
 24 26  2  0
 24 27  1  0
 27 28  1  0
 27 29  1  0
  1 30  1  0
  1 31  1  0
  1 32  1  0
  3 33  1  0
  7 34  1  0
  7 35  1  0
  9 36  1  0
  9 37  1  0
 10 38  1  0
 10 39  1  0
 12 40  1  0
 12 41  1  0
 13 42  1  0
 13 43  1  0
 14 44  1  0
 14 45  1  0
 17 46  1  0
 18 47  1  0
 18 48  1  0
 20 49  1  0
 21 50  1  0
 28 51  1  0
 28 52  1  0
 28 53  1  0
 29 54  1  0
 29 55  1  0
 29 56  1  0
M  END
> <Name>
ZINC27907656

> <reference>
BDB50023298

> <quality>
0.727

> <status>
decoy

$$$$
ZINC22694341
  SciTegic06061311253D

 57 59  0  0  0  0            999 V2000
    1.3295    4.0280   -2.7714 C   0  0
    2.0176    5.3407   -2.3914 C   0  0
    2.7681    5.1581   -1.0974 C   0  0
    4.0478    4.6418   -1.1174 C   0  0
    4.7289    4.4722    0.0794 C   0  0
    4.0964    4.8348    1.2603 C   0  0
    2.8176    5.3498    1.2094 C   0  0
    2.1937    5.4998    0.0482 N   0  3
    0.9183    6.0170    0.0325 C   0  0
    0.7131    7.3727    0.2814 C   0  0
    1.7797    8.1898    0.5413 N   0  0
    1.5639    9.6150    0.8029 C   0  0
    2.9096   10.2955    1.0617 C   0  0
    2.6933   11.7246    1.3240 N   0  0
    2.1873   12.4095    0.1256 C   0  0
    1.9198   13.8795    0.4593 C   0  0
    3.1203   14.4761    0.9575 O   0  0
    3.6406   13.8343    2.1249 C   0  0
    3.9255   12.3638    1.8081 C   0  0
   -0.9196    8.0348    0.2612 S   0  5
   -0.1798    5.1757   -0.2351 C   0  0
   -0.8054    5.3018   -1.2743 O   0  0
   -0.5740    4.1391    0.7448 C   0  0
    0.0487    4.0813    1.9924 C   0  0
   -0.3230    3.1124    2.9013 C   0  0
   -1.3107    2.1988    2.5779 C   0  0
   -1.9281    2.2475    1.3410 C   0  0
   -1.5695    3.2153    0.4252 C   0  0
   -2.9798    1.2628    1.0012 N   0  0
   -3.3006    0.4108    1.8104 O   0  0
   -3.5243    1.3045   -0.0875 O   0  0
    0.6251    3.7388   -1.9775 H   0  0
    2.0857    3.2388   -2.8952 H   0  0
    0.7815    4.1605   -3.7159 H   0  0
    2.7219    5.6290   -3.1856 H   0  0
    1.2614    6.1299   -2.2676 H   0  0
    4.5223    4.3679   -2.0712 H   0  0
    5.7483    4.0592    0.0920 H   0  0
    4.6089    4.7129    2.2259 H   0  0
    2.3099    5.6391    2.1414 H   0  0
    2.7341    7.8028    0.5530 H   0  0
    1.0808   10.0791   -0.0696 H   0  0
    0.9183    9.7333    1.6856 H   0  0
    3.5562   10.1792    0.1795 H   0  0
    3.3931    9.8322    1.9344 H   0  0
    1.2525   11.9326   -0.2041 H   0  0
    2.9363   12.3463   -0.6775 H   0  0
    1.5965   14.4093   -0.4489 H   0  0
    1.1325   13.9460    1.2246 H   0  0
    4.5730   14.3304    2.4322 H   0  0
    2.9039   13.8975    2.9393 H   0  0
    4.2711   11.8528    2.7189 H   0  0
    4.7028   12.3000    1.0324 H   0  0
    0.8342    4.8068    2.2505 H   0  0
    0.1668    3.0660    3.8852 H   0  0
   -1.6062    1.4305    3.3076 H   0  0
   -2.0674    3.2584   -0.5547 H   0  0
  1  2  1  0
  2  3  1  0
  3  8  2  0
  3  4  1  0
  4  5  2  0
  5  6  1  0
  6  7  2  0
  7  8  1  0
  8  9  1  0
  9 10  2  0
  9 21  1  0
 10 11  1  0
 10 20  1  0
 11 12  1  0
 12 13  1  0
 13 14  1  0
 14 19  1  0
 14 15  1  0
 15 16  1  0
 16 17  1  0
 17 18  1  0
 18 19  1  0
 21 22  2  0
 21 23  1  0
 23 28  2  0
 23 24  1  0
 24 25  2  0
 25 26  1  0
 26 27  2  0
 27 28  1  0
 27 29  1  0
 29 30  2  0
 29 31  2  0
  1 32  1  0
  1 33  1  0
  1 34  1  0
  2 35  1  0
  2 36  1  0
  4 37  1  0
  5 38  1  0
  6 39  1  0
  7 40  1  0
 11 41  1  0
 12 42  1  0
 12 43  1  0
 13 44  1  0
 13 45  1  0
 15 46  1  0
 15 47  1  0
 16 48  1  0
 16 49  1  0
 18 50  1  0
 18 51  1  0
 19 52  1  0
 19 53  1  0
 24 54  1  0
 25 55  1  0
 26 56  1  0
 28 57  1  0
M  CHG  2   8   1  20  -1
M  END
> <Name>
ZINC22694341

> <reference>
BDB50023298

> <quality>
0.727

> <status>
decoy

$$$$
ZINC24050650
  SciTegic06061311253D

 58 60  0  0  0  0            999 V2000
   -4.5665   -5.0796    4.9370 C   0  0
   -5.8672   -4.6977    4.2786 C   0  0
   -6.0385   -3.6891    3.3248 C   0  0
   -7.3461   -3.6621    2.9777 C   0  0
   -7.9808   -4.6157    3.6910 N   0  0
   -7.0319   -5.2498    4.5033 N   0  0
   -9.4098   -4.9323    3.6268 C   0  0
   -9.6482   -5.9989    2.5562 C   0  0
  -11.0840   -6.3170    2.4917 C   0  0
  -12.1921   -6.5625    2.4419 N   0  0
   -7.9801   -2.7330    1.9747 C   0  0
   -4.9568   -2.7949    2.7760 C   0  0
   -4.8492   -1.5359    3.6388 C   0  0
   -3.7675   -0.6417    3.0899 C   0  0
   -3.1439   -0.9782    2.1055 O   0  0
   -3.4930    0.5320    3.6929 N   0  0
   -2.5699    1.4158    3.1183 C   0  0
   -2.3253    1.3756    1.7533 C   0  0
   -1.4142    2.2480    1.1890 C   0  0
   -0.7407    3.1585    1.9824 C   0  0
   -0.9830    3.2080    3.3425 C   0  0
   -1.8950    2.3368    3.9161 C   0  0
   -2.1303    2.3805    5.2546 O   0  0
   -1.1045    2.1951   -0.5448 S   0  0
   -1.4519    0.8876   -0.9797 O   0  0
    0.1909    2.7447   -0.7429 O   0  0
   -2.1745    3.2335   -1.2652 N   0  0
   -3.5137    2.8785   -1.7573 C   0  0
   -4.1305    4.1544   -2.3681 C   0  0
   -2.8835    5.0149   -2.7027 C   0  0
   -1.9396    4.6655   -1.5252 C   0  0
   -4.4941   -6.1572    4.7281 H   0  0
   -4.7998   -4.9912    6.0083 H   0  0
   -3.6816   -4.5053    4.6253 H   0  0
   -9.7456   -5.3120    4.6030 H   0  0
   -9.9765   -4.0247    3.3717 H   0  0
   -9.0831   -6.9078    2.8103 H   0  0
   -9.3130   -5.6197    1.5796 H   0  0
   -7.3736   -2.9041    1.0731 H   0  0
   -7.6885   -1.7409    2.3497 H   0  0
   -9.0621   -2.8511    1.8155 H   0  0
   -3.9962   -3.3308    2.7889 H   0  0
   -5.2040   -2.5103    1.7426 H   0  0
   -4.6008   -1.8185    4.6724 H   0  0
   -5.8094   -0.9993    3.6260 H   0  0
   -3.9618    0.7793    4.5761 H   0  0
   -2.8565    0.6495    1.1204 H   0  0
   -0.0101    3.8453    1.5301 H   0  0
   -0.4517    3.9392    3.9695 H   0  0
   -1.9431    1.4629    5.5757 H   0  0
   -4.1380    2.5282   -0.9221 H   0  0
   -3.4325    2.0994   -2.5296 H   0  0
   -4.6812    3.9090   -3.2881 H   0  0
   -4.7590    4.6683   -1.6259 H   0  0
   -3.1385    6.0848   -2.6843 H   0  0
   -2.4406    4.6934   -3.6569 H   0  0
   -0.8931    4.8310   -1.8210 H   0  0
   -2.2078    5.2601   -0.6395 H   0  0
  1  2  1  0
  2  6  2  0
  2  3  1  0
  3  4  2  0
  3 12  1  0
  4  5  1  0
  4 11  1  0
  5  6  1  0
  5  7  1  0
  7  8  1  0
  8  9  1  0
  9 10  3  0
 12 13  1  0
 13 14  1  0
 14 15  2  0
 14 16  1  0
 16 17  1  0
 17 22  2  0
 17 18  1  0
 18 19  2  0
 19 20  1  0
 19 24  1  0
 20 21  2  0
 21 22  1  0
 22 23  1  0
 24 25  2  0
 24 26  2  0
 24 27  1  0
 27 31  1  0
 27 28  1  0
 28 29  1  0
 29 30  1  0
 30 31  1  0
  1 32  1  0
  1 33  1  0
  1 34  1  0
  7 35  1  0
  7 36  1  0
  8 37  1  0
  8 38  1  0
 11 39  1  0
 11 40  1  0
 11 41  1  0
 12 42  1  0
 12 43  1  0
 13 44  1  0
 13 45  1  0
 16 46  1  0
 18 47  1  0
 20 48  1  0
 21 49  1  0
 23 50  1  0
 28 51  1  0
 28 52  1  0
 29 53  1  0
 29 54  1  0
 30 55  1  0
 30 56  1  0
 31 57  1  0
 31 58  1  0
M  END
> <Name>
ZINC24050650

> <reference>
BDB50023298

> <quality>
0.725

> <status>
decoy

$$$$
ZINC17597603
  SciTegic06061311253D

 52 54  0  0  0  0            999 V2000
    2.3225    1.3214    1.2356 C   0  0
    1.0973    1.9152    0.5897 C   0  0
   -0.0918    1.2097    0.5893 C   0  0
   -1.2165    1.7444   -0.0045 C   0  0
   -1.1590    3.0072   -0.5985 C   0  0
    0.0411    3.7186   -0.5984 C   0  0
    1.1667    3.1697   -0.0039 C   0  0
    2.3730    3.8793   -0.0011 N   0  0
    2.3643    5.2237   -0.0965 C   0  0
    1.3114    5.8257   -0.0838 O   0  0
    3.6626    5.9789   -0.2188 C   0  0
    3.3884    7.4021   -0.3058 O   0  0
    4.4499    8.2236   -0.4203 C   0  0
    5.5738    7.7635   -0.4469 O   0  0
    4.2471    9.6839   -0.5137 C   0  0
    2.9563   10.2156   -0.4892 C   0  0
    2.7744   11.5806   -0.5710 C   0  0
    3.8669   12.4214   -0.6886 C   0  0
    5.1486   11.9008   -0.7192 C   0  0
    5.3451   10.5382   -0.6325 C   0  0
    3.6601   13.9112   -0.7832 C   0  0
    3.5206   14.2964   -2.1898 N   0  0
    4.5507   14.6494   -2.9838 C   0  0
    5.7231   14.7058   -2.6805 O   0  0
    3.9387   14.9592   -4.3355 C   0  0
    2.4989   14.7303   -4.1244 N   0  5
    2.3541   14.3468   -2.8431 C   0  0
    1.2833   14.0764   -2.3357 O   0  0
   -2.3634    3.5852   -1.2294 C   0  0
   -2.3098    4.6817   -1.7493 O   0  0
   -3.5209    2.8963   -1.2282 O   0  0
   -4.6633    3.5256   -1.8662 C   0  0
    2.6400    2.0630    1.9835 H   0  0
    3.0864    1.3100    0.4442 H   0  0
    2.1561    0.3264    1.6741 H   0  0
   -0.1413    0.2187    1.0641 H   0  0
   -2.1584    1.1762   -0.0101 H   0  0
    0.0940    4.7117   -1.0685 H   0  0
    3.2675    3.3741    0.0739 H   0  0
    4.2874    5.7797    0.6644 H   0  0
    4.1939    5.6526   -1.1250 H   0  0
    2.0864    9.5476   -0.4049 H   0  0
    1.7585   12.0015   -0.5427 H   0  0
    6.0127   12.5750   -0.8129 H   0  0
    6.3645   10.1256   -0.6569 H   0  0
    4.5250   14.4311   -0.3455 H   0  0
    2.7483   14.1905   -0.2349 H   0  0
    4.1216   16.0104   -4.6028 H   0  0
    4.3264   14.2659   -5.0965 H   0  0
   -4.3629    3.7341   -2.9036 H   0  0
   -4.8107    4.4893   -1.3568 H   0  0
   -5.5687    2.9024   -1.8241 H   0  0
  1  2  1  0
  2  7  2  0
  2  3  1  0
  3  4  2  0
  4  5  1  0
  5  6  2  0
  5 29  1  0
  6  7  1  0
  7  8  1  0
  8  9  1  0
  9 10  2  0
  9 11  1  0
 11 12  1  0
 12 13  1  0
 13 14  2  0
 13 15  1  0
 15 20  2  0
 15 16  1  0
 16 17  2  0
 17 18  1  0
 18 19  2  0
 18 21  1  0
 19 20  1  0
 21 22  1  0
 22 27  1  0
 22 23  1  0
 23 24  2  0
 23 25  1  0
 25 26  1  0
 26 27  1  0
 27 28  2  0
 29 30  2  0
 29 31  1  0
 31 32  1  0
  1 33  1  0
  1 34  1  0
  1 35  1  0
  3 36  1  0
  4 37  1  0
  6 38  1  0
  8 39  1  0
 11 40  1  0
 11 41  1  0
 16 42  1  0
 17 43  1  0
 19 44  1  0
 20 45  1  0
 21 46  1  0
 21 47  1  0
 25 48  1  0
 25 49  1  0
 32 50  1  0
 32 51  1  0
 32 52  1  0
M  CHG  1  26  -1
M  END
> <Name>
ZINC17597603

> <reference>
BDB50023298

> <quality>
0.724

> <status>
decoy

$$$$
ZINC10586842
  SciTegic06061311253D

 53 54  0  0  0  0            999 V2000
   -0.0636    1.0850   -0.0232 C   0  0
   -0.7248    1.5456    1.1569 O   0  0
   -0.8220    2.8918    1.3248 C   0  0
   -0.2930    3.7460    0.3755 C   0  0
   -0.3936    5.1286    0.5482 C   0  0
   -1.0288    5.6443    1.6806 C   0  0
   -1.5561    4.7858    2.6270 C   0  0
   -1.4592    3.4082    2.4498 C   0  0
   -1.9834    2.5663    3.3789 O   0  0
   -1.1254    2.1662    4.4493 C   0  0
   -2.1750    5.2872    3.7294 O   0  0
   -2.2437    6.7099    3.8441 C   0  0
    0.1700    6.0431   -0.4642 C   0  0
    0.7222    5.5932   -1.4495 O   0  0
    0.0723    7.3768   -0.2964 N   0  0
    0.6316    8.2844   -1.3012 C   0  0
    0.3914    9.7109   -0.8788 C   0  0
   -0.1899    9.9463    0.1595 O   0  0
    0.8224   10.7252   -1.6547 N   0  0
    0.4990   12.0478   -1.3226 C   0  0
   -0.6301   12.3161   -0.5607 C   0  0
   -0.9482   13.6232   -0.2329 C   0  0
   -0.1355   14.6660   -0.6677 C   0  0
    0.9904   14.3959   -1.4283 C   0  0
    1.3114   13.0899   -1.7509 C   0  0
    2.7270   12.7532   -2.6976 Cl  0  0
   -0.4471   15.9508   -0.3462 O   0  0
    0.4312   16.9709   -0.8260 C   0  0
   -2.0543   13.8879    0.5131 O   0  0
   -2.8424   12.7692    0.9244 C   0  0
    0.9440    1.5259   -0.0052 H   0  0
   -0.6080    1.5221   -0.8732 H   0  0
   -0.0245   -0.0124   -0.0883 H   0  0
    0.2068    3.3374   -0.5152 H   0  0
   -1.1093    6.7326    1.8190 H   0  0
   -0.7914    3.0920    4.9405 H   0  0
   -0.2472    1.6961    3.9826 H   0  0
   -1.6194    1.4865    5.1592 H   0  0
   -2.7577    7.0686    2.9401 H   0  0
   -1.2061    7.0734    3.8089 H   0  0
   -2.7574    7.0387    4.7596 H   0  0
   -0.3956    7.7579    0.5383 H   0  0
    0.1458    8.1033   -2.2714 H   0  0
    1.7133    8.1072   -1.3940 H   0  0
    1.3894   10.5283   -2.4917 H   0  0
   -1.2715   11.4909   -0.2177 H   0  0
    1.6296   15.2208   -1.7759 H   0  0
    0.4610   16.8637   -1.9204 H   0  0
    1.4304   16.7273   -0.4358 H   0  0
    0.1144   17.9808   -0.5263 H   0  0
   -2.1691   12.1075    1.4890 H   0  0
   -3.1379   12.2441    0.0041 H   0  0
   -3.7178   13.0623    1.5225 H   0  0
  1  2  1  0
  2  3  1  0
  3  8  2  0
  3  4  1  0
  4  5  2  0
  5  6  1  0
  5 13  1  0
  6  7  2  0
  7  8  1  0
  7 11  1  0
  8  9  1  0
  9 10  1  0
 11 12  1  0
 13 14  2  0
 13 15  1  0
 15 16  1  0
 16 17  1  0
 17 18  2  0
 17 19  1  0
 19 20  1  0
 20 25  2  0
 20 21  1  0
 21 22  2  0
 22 23  1  0
 22 29  1  0
 23 24  2  0
 23 27  1  0
 24 25  1  0
 25 26  1  0
 27 28  1  0
 29 30  1  0
  1 31  1  0
  1 32  1  0
  1 33  1  0
  4 34  1  0
  6 35  1  0
 10 36  1  0
 10 37  1  0
 10 38  1  0
 12 39  1  0
 12 40  1  0
 12 41  1  0
 15 42  1  0
 16 43  1  0
 16 44  1  0
 19 45  1  0
 21 46  1  0
 24 47  1  0
 28 48  1  0
 28 49  1  0
 28 50  1  0
 30 51  1  0
 30 52  1  0
 30 53  1  0
M  END
> <Name>
ZINC10586842

> <reference>
BDB50023298

> <quality>
0.724

> <status>
decoy

$$$$
ZINC09508422
  SciTegic06061311253D

 45 47  0  0  0  0            999 V2000
    2.0681   -0.0617   -1.9157 C   0  0
    2.1176    1.3518   -1.7113 O   0  0
    1.0586    1.9210   -1.0779 C   0  0
   -0.0066    1.1342   -0.6617 C   0  0
   -1.0817    1.7104   -0.0124 C   0  0
   -1.1031    3.0722    0.2194 C   0  0
   -0.0425    3.8658   -0.2003 C   0  0
    1.0387    3.2881   -0.8525 C   0  0
   -0.0642    5.2431    0.0331 N   0  0
    1.1288    5.9505    0.1314 C   0  0
    2.3684    5.5008    0.1416 N   0  0
    3.4169    6.3855    0.2446 N   0  0
    3.1767    7.6791    0.3433 C   0  0
    1.3916    7.7106    0.2856 S   0  0
    4.3128    9.0176    0.4927 S   0  0
    5.9398    8.2156    0.4811 C   0  0
    7.0168    9.2625    0.6043 C   0  0
    6.7163   10.4343    0.6913 O   0  0
    8.3139    8.8966    0.6178 N   0  0
    9.3608    9.9143    0.7376 C   0  0
   10.7331    9.2379    0.7278 C   0  0
   11.7801   10.2556    0.8476 N   0  0
   12.2712   10.7842   -0.2607 C   0  0
   11.8851   10.4553   -1.3618 O   0  0
   13.3517   11.8368   -0.0583 C   0  0
   13.4488   11.8395    1.7764 S   0  0
   12.1971   10.6011    2.0798 C   0  0
   11.8121   10.1707    3.1496 O   0  0
    1.1494   -0.2595   -2.4874 H   0  0
    1.9500   -0.5142   -0.9201 H   0  0
    2.9585   -0.4482   -2.4333 H   0  0
    0.0052    0.0503   -0.8491 H   0  0
   -1.9221    1.0836    0.3206 H   0  0
   -1.9601    3.5284    0.7364 H   0  0
    1.8778    3.9145   -1.1896 H   0  0
   -0.9640    5.7345    0.1324 H   0  0
    6.0714    7.6644   -0.4617 H   0  0
    6.0101    7.5165    1.3275 H   0  0
    8.5691    7.9015    0.5439 H   0  0
    9.2912   10.6135   -0.1087 H   0  0
    9.2314   10.4658    1.6805 H   0  0
   10.8647    8.6867   -0.2150 H   0  0
   10.8035    8.5388    1.5741 H   0  0
   14.3100   11.5046   -0.4842 H   0  0
   13.0164   12.8210   -0.4174 H   0  0
  1  2  1  0
  2  3  1  0
  3  8  2  0
  3  4  1  0
  4  5  2  0
  5  6  1  0
  6  7  2  0
  7  8  1  0
  7  9  1  0
  9 10  1  0
 10 14  1  0
 10 11  2  0
 11 12  1  0
 12 13  2  0
 13 14  1  0
 13 15  1  0
 15 16  1  0
 16 17  1  0
 17 18  2  0
 17 19  1  0
 19 20  1  0
 20 21  1  0
 21 22  1  0
 22 27  1  0
 22 23  1  0
 23 24  2  0
 23 25  1  0
 25 26  1  0
 26 27  1  0
 27 28  2  0
  1 29  1  0
  1 30  1  0
  1 31  1  0
  4 32  1  0
  5 33  1  0
  6 34  1  0
  8 35  1  0
  9 36  1  0
 16 37  1  0
 16 38  1  0
 19 39  1  0
 20 40  1  0
 20 41  1  0
 21 42  1  0
 21 43  1  0
 25 44  1  0
 25 45  1  0
M  END
> <Name>
ZINC09508422

> <reference>
BDB50023298

> <quality>
0.719

> <status>
decoy

$$$$
ZINC21451550
  SciTegic06061311253D

 42 44  0  0  0  0            999 V2000
    3.6268    0.6972   -0.0288 C   0  0
    2.1200    0.6770   -0.0145 C   0  0
    1.3073    1.7595   -0.0010 C   0  0
   -0.0157    1.3042    0.0092 C   0  0
    0.0021   -0.0041    0.0020 N   0  0
    1.3384   -0.4239   -0.0130 N   0  0
    1.8055   -1.8124   -0.0249 C   0  0
    1.9515   -2.2811   -1.4497 C   0  0
    1.0041   -2.8773   -2.1883 N   0  0
    1.5609   -3.1082   -3.3602 C   0  0
    2.8210   -2.6538   -3.2850 O   0  0
    3.0211   -2.1856   -2.1841 N   0  0
    0.9209   -3.7515   -4.5325 C   0  0
   -0.2350   -4.1200   -4.4674 O   0  0
    1.6212   -3.9274   -5.6706 N   0  0
    0.9887   -4.5631   -6.8290 C   0  0
    1.9936   -4.6404   -7.9802 C   0  0
    1.3330   -5.3043   -9.1901 C   0  0
    2.2952   -5.3783  -10.2923 N   0  0
    2.4901   -4.4353  -11.2651 C   0  0
    3.4646   -4.9010  -12.0695 C   0  0
    3.8476   -6.0999  -11.6061 N   0  0
    3.1515   -6.3924  -10.5417 C   0  0
   -1.2264    2.1557    0.0198 N   0  0
   -2.3313    1.6432    0.0230 O   0  0
   -1.1178    3.3688    0.0254 O   0  0
    1.8620    3.5673    0.0025 Br  0  0
    3.8661    0.0871   -0.9123 H   0  0
    3.8829    0.0776    0.8433 H   0  0
    4.1017    1.6894   -0.0280 H   0  0
    1.0769   -2.4500    0.4972 H   0  0
    2.7791   -1.8763    0.4831 H   0  0
    2.6011   -3.6149   -5.7259 H   0  0
    0.6635   -5.5784   -6.5581 H   0  0
    0.1170   -3.9704   -7.1434 H   0  0
    2.3190   -3.6253   -8.2518 H   0  0
    2.8656   -5.2338   -7.6680 H   0  0
    0.4613   -4.7116   -9.5045 H   0  0
    1.0077   -6.3196   -8.9192 H   0  0
    1.9538   -3.4806  -11.3697 H   0  0
    3.8746   -4.3880  -12.9520 H   0  0
    3.2465   -7.3125   -9.9463 H   0  0
  1  2  1  0
  2  6  1  0
  2  3  2  0
  3  4  1  0
  3 27  1  0
  4  5  2  0
  4 24  1  0
  5  6  1  0
  6  7  1  0
  7  8  1  0
  8 12  2  0
  8  9  1  0
  9 10  2  0
 10 11  1  0
 10 13  1  0
 11 12  1  0
 13 14  2  0
 13 15  1  0
 15 16  1  0
 16 17  1  0
 17 18  1  0
 18 19  1  0
 19 23  1  0
 19 20  1  0
 20 21  2  0
 21 22  1  0
 22 23  2  0
 24 25  2  0
 24 26  2  0
  1 28  1  0
  1 29  1  0
  1 30  1  0
  7 31  1  0
  7 32  1  0
 15 33  1  0
 16 34  1  0
 16 35  1  0
 17 36  1  0
 17 37  1  0
 18 38  1  0
 18 39  1  0
 20 40  1  0
 21 41  1  0
 23 42  1  0
M  END
> <Name>
ZINC21451550

> <reference>
BDB50023298

> <quality>
0.716

> <status>
decoy

$$$$
ZINC28016877
  SciTegic06061311253D

 58 60  0  0  1  0            999 V2000
    2.3354    5.1236   -5.4298 C   0  0
    2.6255    4.4950   -4.0912 C   0  0
    3.6843    3.7148   -3.7776 C   0  0
    3.4772    3.3897   -2.4099 C   0  0
    2.3699    3.9889   -2.0562 N   0  0
    1.8867    4.6052   -2.9775 O   0  0
    4.2918    2.5981   -1.6069 N   0  5
    3.8885    2.3354   -0.0225 S   0  0
    3.5941    3.6075    0.5380 O   0  0
    4.8875    1.4791    0.5143 O   0  0
    2.3828    1.4202   -0.0130 C   0  0
    1.1701    2.0865    0.0021 C   0  0
   -0.0166    1.3756    0.0096 C   0  0
    0.0021   -0.0041    0.0020 C   0  0
    1.2217   -0.6822   -0.0132 C   0  0
    2.4156    0.0413   -0.0207 C   0  0
    1.2493   -2.1604   -0.0219 C   0  0
    2.3131   -2.7483   -0.0352 O   0  0
    0.0949   -2.8559   -0.0151 N   0  0
    0.1222   -4.3207   -0.0237 C   0  0
   -1.3104   -4.8575   -0.0134 C   0  0  2  0  0  0
   -1.2836   -6.3838    0.1034 C   0  0
   -2.6586   -6.8996    0.0352 N   0  3
   -3.3023   -6.5018   -1.2252 C   0  0
   -3.3089   -4.9743   -1.3287 C   0  0
   -1.9673   -4.4890   -1.2292 O   0  0
   -2.6822   -8.3591    0.2007 C   0  0
   -4.1278   -8.8294    0.3740 C   0  0  1  0  0  0
   -4.1645  -10.3582    0.4214 C   0  0
   -4.6949   -8.2649    1.6781 C   0  0
    2.2338    6.1885   -5.1734 H   0  0
    1.3162    4.7680   -5.6416 H   0  0
    3.0581    4.9218   -6.2342 H   0  0
    4.5136    3.4039   -4.4299 H   0  0
    1.1496    3.1863    0.0082 H   0  0
   -0.9772    1.9114    0.0216 H   0  0
   -0.9422   -0.5682    0.0079 H   0  0
    3.3803   -0.4871   -0.0327 H   0  0
   -0.8065   -2.3576   -0.0039 H   0  0
    0.6554   -4.6839    0.8672 H   0  0
    0.6386   -4.6727   -0.9290 H   0  0
   -1.8532   -4.4313    0.8432 H   0  0
   -0.8314   -6.6717    1.0639 H   0  0
   -0.6925   -6.8051   -0.7231 H   0  0
   -3.1939   -6.4858    0.8118 H   0  0
   -4.3370   -6.8748   -1.2442 H   0  0
   -2.7428   -6.9243   -2.0728 H   0  0
   -3.7369   -4.6736   -2.2964 H   0  0
   -3.9128   -4.5525   -0.5118 H   0  0
   -2.0976   -8.6379    1.0898 H   0  0
   -2.2462   -8.8363   -0.6893 H   0  0
   -4.7330   -8.4742   -0.4731 H   0  0
   -3.5598  -10.7145    1.2684 H   0  0
   -3.7572  -10.7650   -0.5159 H   0  0
   -5.2036  -10.6970    0.5460 H   0  0
   -4.6692   -7.1657    1.6449 H   0  0
   -4.0905   -8.6197    2.5259 H   0  0
   -5.7342   -8.6027    1.8033 H   0  0
  1  2  1  0
  2  6  1  0
  2  3  2  0
  3  4  1  0
  4  5  2  0
  4  7  1  0
  5  6  1  0
  7  8  1  0
  8  9  2  0
  8 10  2  0
  8 11  1  0
 11 16  2  0
 11 12  1  0
 12 13  2  0
 13 14  1  0
 14 15  2  0
 15 16  1  0
 15 17  1  0
 17 18  2  0
 17 19  1  0
 19 20  1  0
 20 21  1  0
 21 26  1  0
 21 22  1  0
 22 23  1  0
 23 24  1  0
 23 27  1  0
 24 25  1  0
 25 26  1  0
 27 28  1  0
 28 29  1  0
 28 30  1  0
  1 31  1  0
  1 32  1  0
  1 33  1  0
  3 34  1  0
 12 35  1  0
 13 36  1  0
 14 37  1  0
 16 38  1  0
 19 39  1  0
 20 40  1  0
 20 41  1  0
 21 42  1  0
 22 43  1  0
 22 44  1  0
 23 45  1  0
 24 46  1  0
 24 47  1  0
 25 48  1  0
 25 49  1  0
 27 50  1  0
 27 51  1  0
 28 52  1  0
 29 53  1  0
 29 54  1  0
 29 55  1  0
 30 56  1  0
 30 57  1  0
 30 58  1  0
M  CHG  2   7  -1  23   1
M  END
> <Name>
ZINC28016877

> <reference>
BDB50023298

> <quality>
0.714

> <status>
decoy

$$$$
ZINC05812206
  SciTegic06061311253D

 44 45  0  0  1  0            999 V2000
    0.3584    3.2752    5.7553 C   0  0
    0.1702    2.1136    5.0931 C   0  0
    0.7388    0.9252    5.6116 C   0  0
    0.5785   -0.1353    5.0347 O   0  0
    1.4645    0.9795    6.7467 N   0  0
    1.6360    2.1510    7.3868 C   0  0
    2.2882    2.1838    8.4125 O   0  0
    1.0963    3.2864    6.9076 N   0  0
    1.3010    4.5468    7.6258 C   0  0  2  0  0  0
    0.6797    4.4739    9.0439 C   0  0
    0.4202    5.9667    9.3614 C   0  0  2  0  0  0
    0.3934    6.6477    7.9793 C   0  0  1  0  0  0
    0.5722    5.6186    6.9897 O   0  0
   -0.9505    7.3488    7.7708 C   0  0
   -0.9237    8.0735    6.5395 O   0  0
    1.4560    6.4881   10.1441 F   0  0
   -0.6394    2.0815    3.8225 C   0  0  1  0  0  0
    0.1760    1.6052    2.7500 O   0  0
   -0.2615    2.0256    1.4562 C   0  0
    0.7802    1.6239    0.4101 C   0  0  2  0  0  0
    0.9389    0.2340    0.4198 F   0  0
    2.0024    2.2349    0.7105 F   0  0
    0.3520    2.0356   -0.8565 F   0  0
   -1.7591    1.2101    3.9930 O   0  0
   -2.7954    1.3996    3.0275 C   0  0
   -4.0020    0.5350    3.3981 C   0  0  1  0  0  0
   -4.4701    0.9053    4.6633 F   0  0
   -5.0166    0.7205    2.4528 F   0  0
   -3.6227   -0.8115    3.4169 F   0  0
   -0.0794    4.2080    5.3703 H   0  0
    1.8893    0.1210    7.1255 H   0  0
    2.3874    4.7183    7.6423 H   0  0
    1.4022    4.0517    9.7579 H   0  0
   -0.2693    3.9184    9.0177 H   0  0
   -0.5097    6.1230    9.9279 H   0  0
    1.1894    7.4029    7.9006 H   0  0
   -1.1345    8.0458    8.6017 H   0  0
   -1.7542    6.5985    7.7367 H   0  0
   -0.7592    7.4474    5.7905 H   0  0
   -0.9962    3.0956    3.5893 H   0  0
   -0.3864    3.1184    1.4473 H   0  0
   -1.2222    1.5448    1.2197 H   0  0
   -2.4285    1.1084    2.0322 H   0  0
   -3.0941    2.4582    3.0130 H   0  0
  1  8  1  0
  1  2  2  0
  2  3  1  0
  2 17  1  0
  3  4  2  0
  3  5  1  0
  5  6  1  0
  6  7  2  0
  6  8  1  0
  8  9  1  0
  9 13  1  0
  9 10  1  0
 10 11  1  0
 11 12  1  0
 11 16  1  0
 12 13  1  0
 12 14  1  0
 14 15  1  0
 17 18  1  0
 17 24  1  0
 18 19  1  0
 19 20  1  0
 20 21  1  0
 20 22  1  0
 20 23  1  0
 24 25  1  0
 25 26  1  0
 26 27  1  0
 26 28  1  0
 26 29  1  0
  1 30  1  0
  5 31  1  0
  9 32  1  0
 10 33  1  0
 10 34  1  0
 11 35  1  0
 12 36  1  0
 14 37  1  0
 14 38  1  0
 15 39  1  0
 17 40  1  0
 19 41  1  0
 19 42  1  0
 25 43  1  0
 25 44  1  0
M  END
> <Name>
ZINC05812206

> <reference>
BDB50023298

> <quality>
0.708

> <status>
decoy

$$$$
ZINC30565765
  SciTegic06061311253D

 50 52  0  0  0  0            999 V2000
    0.2920    1.5640    0.2725 C   0  0
    0.3275    0.1009    0.3379 N   0  0
    0.5314   -0.5702    1.6242 C   0  0
    0.1370   -0.7945   -1.0420 S   0  0
   -0.3369   -2.0711   -0.6357 O   0  0
   -0.5719    0.0237   -1.9624 O   0  0
    1.7416   -1.0470   -1.7249 C   0  0
    2.2692   -2.3213   -1.7953 C   0  0
    3.5335   -2.5201   -2.3338 C   0  0
    4.2665   -1.4370   -2.8013 C   0  0
    3.7376   -0.1636   -2.7302 C   0  0
    2.4721    0.0335   -2.1968 C   0  0
    1.9496    1.2872   -2.1322 O   0  0
    2.7568    2.3532   -2.6364 C   0  0
    4.0689   -3.8119   -2.4060 N   0  0
    3.2570   -4.8672   -2.6146 C   0  0
    2.0734   -4.6900   -2.8359 O   0  0
    3.7997   -6.2288   -2.5751 C   0  0
    3.0920   -7.3806   -2.7682 C   0  0
    4.0039   -8.4403   -2.6428 C   0  0
    5.2129   -7.8959   -2.3821 C   0  0
    5.0868   -6.5629   -2.3473 O   0  0
    6.7100   -8.7918   -2.1359 S   0  0
    7.5631   -7.9539   -1.3680 O   0  0
    6.3379  -10.0954   -1.7100 O   0  0
    7.4265   -8.9649   -3.6188 N   0  0
    7.9039   -7.7848   -4.3439 C   0  0  2  0  0  0
    7.8153   -7.8103   -5.8712 C   0  0
    9.1752   -7.9368   -5.1816 C   0  0
    1.2460    1.8891    0.7133 H   0  0
   -0.5022    1.8583    0.9744 H   0  0
    0.1340    1.9689   -0.7380 H   0  0
   -0.2725   -0.1894    2.2713 H   0  0
    1.4757   -0.1587    2.0102 H   0  0
    0.5420   -1.6686    1.5658 H   0  0
    1.6880   -3.1786   -1.4249 H   0  0
    5.2682   -1.5936   -3.2281 H   0  0
    4.3197    0.6948   -3.0965 H   0  0
    2.9807    2.1028   -3.6839 H   0  0
    3.7006    2.3199   -2.0724 H   0  0
    2.2677    3.3347   -2.5501 H   0  0
    5.0833   -3.9556   -2.2997 H   0  0
    2.0158   -7.4622   -2.9808 H   0  0
    3.7770   -9.5124   -2.7387 H   0  0
    7.5365   -9.9022   -4.0313 H   0  0
    7.5687   -7.0940   -3.5562 H   0  0
    7.6655   -6.8017   -6.2838 H   0  0
    7.4577   -8.7837   -6.2380 H   0  0
    9.5337   -8.9767   -5.1862 H   0  0
    9.7407   -6.9946   -5.2305 H   0  0
  1  2  1  0
  2  3  1  0
  2  4  1  0
  4  5  2  0
  4  6  2  0
  4  7  1  0
  7 12  2  0
  7  8  1  0
  8  9  2  0
  9 10  1  0
  9 15  1  0
 10 11  2  0
 11 12  1  0
 12 13  1  0
 13 14  1  0
 15 16  1  0
 16 17  2  0
 16 18  1  0
 18 22  1  0
 18 19  2  0
 19 20  1  0
 20 21  2  0
 21 22  1  0
 21 23  1  0
 23 24  2  0
 23 25  2  0
 23 26  1  0
 26 27  1  0
 27 29  1  0
 27 28  1  0
 28 29  1  0
  1 30  1  0
  1 31  1  0
  1 32  1  0
  3 33  1  0
  3 34  1  0
  3 35  1  0
  8 36  1  0
 10 37  1  0
 11 38  1  0
 14 39  1  0
 14 40  1  0
 14 41  1  0
 15 42  1  0
 19 43  1  0
 20 44  1  0
 26 45  1  0
 27 46  1  0
 28 47  1  0
 28 48  1  0
 29 49  1  0
 29 50  1  0
M  END
> <Name>
ZINC30565765

> <reference>
BDB50023298

> <quality>
0.707

> <status>
decoy

$$$$
ZINC23060433
  SciTegic06061311253D

 57 58  0  0  1  0            999 V2000
    2.4754   -3.3839    5.7507 C   0  0
    1.9936   -2.2030    6.4715 N   0  0
    0.9670   -2.3451    7.5068 C   0  0  2  0  0  0
    1.4822   -3.2684    8.6127 C   0  0
    0.4099   -3.4168    9.6940 C   0  0
   -0.8560   -4.0158    9.0780 C   0  0
   -1.3713   -3.0925    7.9722 C   0  0
   -0.2990   -2.9441    6.8909 C   0  0
    2.6096   -0.7075    6.1159 S   0  0
    3.8937   -0.9221    5.5464 O   0  0
    2.4131    0.0976    7.2702 O   0  0
    1.6034   -0.0186    4.8441 C   0  0
    0.4901    0.7466    5.1676 C   0  0
   -0.2728    1.2694    4.1397 C   0  0
    0.0987    1.0127    2.8230 C   0  0
    1.1648    0.2734    2.5555 N   0  0
    1.9139   -0.2334    3.5164 C   0  0
   -0.8618    1.6708    1.5005 S   0  0
   -0.0127    1.0858    0.0080 C   0  0
   -0.7416    1.5850   -1.2129 C   0  0
   -1.7355    2.2679   -1.0885 O   0  0
   -0.2884    1.2723   -2.4431 N   0  0
   -0.9403    1.7188   -3.5350 C   0  0
   -1.9367    2.4034   -3.4102 O   0  0
   -0.4872    1.4061   -4.7651 N   0  0
   -1.1957    1.8914   -5.9520 C   0  0
   -0.4796    1.3979   -7.2108 C   0  0
   -0.5617   -0.0271   -7.2779 O   0  0
    0.0796   -0.5930   -8.4227 C   0  0
    1.5719   -3.8376    5.3173 H   0  0
    2.8323   -4.0670    6.5355 H   0  0
    3.2452   -3.1706    4.9945 H   0  0
    0.7359   -1.3573    7.9320 H   0  0
    2.3923   -2.8385    9.0565 H   0  0
    1.7129   -4.2565    8.1878 H   0  0
    0.7799   -4.0811   10.4888 H   0  0
    0.1778   -2.4294   10.1197 H   0  0
   -1.6277   -4.1228    9.8545 H   0  0
   -0.6248   -5.0034    8.6522 H   0  0
   -2.2811   -3.5234    7.5289 H   0  0
   -1.6026   -2.1042    8.3963 H   0  0
   -0.6699   -2.2801    6.0962 H   0  0
   -0.0691   -3.9321    6.4656 H   0  0
    0.2214    0.9325    6.2180 H   0  0
   -1.1611    1.8798    4.3595 H   0  0
    2.7973   -0.8349    3.2560 H   0  0
    0.0026   -0.0141    0.0009 H   0  0
    1.0191    1.4670   -0.0002 H   0  0
    0.5561    0.6921   -2.5488 H   0  0
    0.3572    0.8259   -4.8708 H   0  0
   -1.2109    2.9913   -5.9471 H   0  0
   -2.2276    1.5103   -5.9446 H   0  0
   -0.9580    1.8345   -8.0999 H   0  0
    0.5769    1.7023   -7.1761 H   0  0
    1.1354   -0.2854   -8.3972 H   0  0
   -0.3891   -0.1543   -9.3160 H   0  0
   -0.0078   -1.6895   -8.4342 H   0  0
  1  2  1  0
  2  3  1  0
  2  9  1  0
  3  8  1  0
  3  4  1  0
  4  5  1  0
  5  6  1  0
  6  7  1  0
  7  8  1  0
  9 10  2  0
  9 11  2  0
  9 12  1  0
 12 17  2  0
 12 13  1  0
 13 14  2  0
 14 15  1  0
 15 16  2  0
 15 18  1  0
 16 17  1  0
 18 19  1  0
 19 20  1  0
 20 21  2  0
 20 22  1  0
 22 23  1  0
 23 24  2  0
 23 25  1  0
 25 26  1  0
 26 27  1  0
 27 28  1  0
 28 29  1  0
  1 30  1  0
  1 31  1  0
  1 32  1  0
  3 33  1  0
  4 34  1  0
  4 35  1  0
  5 36  1  0
  5 37  1  0
  6 38  1  0
  6 39  1  0
  7 40  1  0
  7 41  1  0
  8 42  1  0
  8 43  1  0
 13 44  1  0
 14 45  1  0
 17 46  1  0
 19 47  1  0
 19 48  1  0
 22 49  1  0
 25 50  1  0
 26 51  1  0
 26 52  1  0
 27 53  1  0
 27 54  1  0
 29 55  1  0
 29 56  1  0
 29 57  1  0
M  END
> <Name>
ZINC23060433

> <reference>
BDB50023298

> <quality>
0.705

> <status>
decoy

$$$$
ZINC17893298
  SciTegic06061311253D

 54 57  0  0  0  0            999 V2000
    3.6806   15.4667   -0.5792 C   0  0
    2.9947   14.1729   -0.1361 C   0  0
    2.3477   13.4980   -1.3472 C   0  0
    1.6909   12.2591   -0.9228 N   0  0
    2.3991   11.0913   -0.9257 C   0  0
    1.7584    9.9067   -0.5229 C   0  0
    0.3530    9.9942   -0.1058 C   0  0
   -0.2500    9.0014    0.2579 O   0  0
   -0.2555   11.1978   -0.1337 N   0  0
    0.4068   12.2953   -0.5340 C   0  0
   -0.1780   13.3608   -0.5440 O   0  0
   -1.6569   11.3092    0.2784 C   0  0
    2.4454    8.6740   -0.5139 C   0  0
    3.6388    8.6422   -0.7376 O   0  0
    1.6983    7.3971   -0.2268 C   0  0
    2.8469    5.9995   -0.2871 S   0  0
    1.7393    4.6775    0.0737 C   0  0
    0.4501    4.7823    0.3078 N   0  0
   -0.0528    3.6217    0.5351 N   0  0
    0.8837    2.7050    0.4601 C   0  0
    2.0612    3.3536    0.1674 N   0  0
    3.3841    2.7497   -0.0100 C   0  0  2  0  0  0
    4.2089    3.1975   -1.2183 C   0  0
    3.5755    1.8041   -1.1974 C   0  0
    0.7077    1.2507    0.6590 C   0  0
   -0.5648    0.6713    0.5872 C   0  0
   -0.6755   -0.6941    0.7808 C   0  0
    0.4637   -1.4364    1.0367 C   0  0
    1.6502   -0.8634    1.0982 N   0  0
    1.8070    0.4322    0.9210 C   0  0
    3.7021   11.0739   -1.3171 N   0  0
    2.9359   16.1448   -1.0215 H   0  0
    4.4544   15.2355   -1.3260 H   0  0
    4.1460   15.9525    0.2911 H   0  0
    3.7401   13.4953    0.3058 H   0  0
    2.2209   14.4040    0.6108 H   0  0
    3.1203   13.2651   -2.0947 H   0  0
    1.6019   14.1749   -1.7894 H   0  0
   -1.6910   10.9071    1.3017 H   0  0
   -2.2057   10.6082   -0.3677 H   0  0
   -2.0559   12.3325    0.2182 H   0  0
    1.2441    7.4547    0.7734 H   0  0
    0.9095    7.2551   -0.9802 H   0  0
    3.5632    2.6846    1.0734 H   0  0
    5.2880    3.1521   -1.0098 H   0  0
    3.6418    3.8878   -1.8600 H   0  0
    2.6758    1.7616   -1.8288 H   0  0
    4.3214    1.0262   -0.9771 H   0  0
   -1.4537    1.2859    0.3821 H   0  0
   -1.6590   -1.1844    0.7318 H   0  0
    0.3786   -2.5221    1.1914 H   0  0
    2.8132    0.8728    0.9800 H   0  0
    4.1562   11.9497   -1.6133 H   0  0
    4.2323   10.1908   -1.3177 H   0  0
  1  2  1  0
  2  3  1  0
  3  4  1  0
  4 10  1  0
  4  5  1  0
  5  6  2  0
  5 31  1  0
  6  7  1  0
  6 13  1  0
  7  8  2  0
  7  9  1  0
  9 10  1  0
  9 12  1  0
 10 11  2  0
 13 14  2  0
 13 15  1  0
 15 16  1  0
 16 17  1  0
 17 21  1  0
 17 18  2  0
 18 19  1  0
 19 20  2  0
 20 21  1  0
 20 25  1  0
 21 22  1  0
 22 24  1  0
 22 23  1  0
 23 24  1  0
 25 30  2  0
 25 26  1  0
 26 27  2  0
 27 28  1  0
 28 29  2  0
 29 30  1  0
  1 32  1  0
  1 33  1  0
  1 34  1  0
  2 35  1  0
  2 36  1  0
  3 37  1  0
  3 38  1  0
 12 39  1  0
 12 40  1  0
 12 41  1  0
 15 42  1  0
 15 43  1  0
 22 44  1  0
 23 45  1  0
 23 46  1  0
 24 47  1  0
 24 48  1  0
 26 49  1  0
 27 50  1  0
 28 51  1  0
 30 52  1  0
 31 53  1  0
 31 54  1  0
M  END
> <Name>
ZINC17893298

> <reference>
BDB50023298

> <quality>
0.700

> <status>
decoy

$$$$
ZINC18336931
  SciTegic06061311253D

 55 56  0  0  0  0            999 V2000
   -4.0747   -1.2631   -4.3849 C   0  0
   -3.2197   -1.3416   -3.1185 C   0  0
   -1.9680   -0.6915   -3.3479 O   0  0
   -1.0911   -0.6717   -2.3224 C   0  0
   -1.3828   -1.1928   -1.2622 O   0  0
    0.1673   -0.0450   -2.4799 C   0  0
    0.3035    1.2916   -2.3434 C   0  0
    1.5189    1.8954   -2.4961 N   0  0
    2.6459    1.2331   -2.7858 C   0  0
    3.6818    1.8583   -2.9026 O   0  0
    2.6693   -0.1041   -2.9520 N   0  0
    1.4080   -0.8505   -2.8080 C   0  0
   -0.9063    2.1313   -2.0235 C   0  0
   -0.7434    2.7354   -0.7132 O   0  0
   -1.7445    3.5226   -0.2740 C   0  0
   -2.7266    3.6995   -0.9666 O   0  0
   -1.6479    4.1707    1.0500 C   0  0
   -0.5203    3.9695    1.8488 C   0  0
   -0.4364    4.5781    3.0837 C   0  0
   -1.4665    5.3865    3.5316 C   0  0
   -2.5866    5.5898    2.7455 C   0  0
   -2.6810    4.9918    1.5058 C   0  0
   -3.8925    6.6206    3.3259 S   0  0
   -4.8567    6.6800    2.2838 O   0  0
   -4.2128    6.1717    4.6355 O   0  0
   -3.2751    8.1488    3.4871 N   0  0
   -3.1776    9.0265    2.3182 C   0  0
   -2.8265    8.6229    4.7987 C   0  0
   -1.3677    6.0481    4.8820 C   0  0
    0.7798    4.3626    3.9469 C   0  0
   -3.5504   -1.7608   -5.2140 H   0  0
   -4.2519   -0.2089   -4.6441 H   0  0
   -5.0384   -1.7634   -4.2090 H   0  0
   -3.7446   -0.8434   -2.2901 H   0  0
   -3.0424   -2.3958   -2.8592 H   0  0
    1.5715    2.9177   -2.3820 H   0  0
    3.5485   -0.5924   -3.1745 H   0  0
    1.2270   -1.4029   -3.7418 H   0  0
    1.5455   -1.6102   -2.0244 H   0  0
   -1.0145    2.9221   -2.7804 H   0  0
   -1.8050    1.4970   -2.0249 H   0  0
    0.2991    3.3271    1.4940 H   0  0
   -3.5681    5.1615    0.8780 H   0  0
   -4.2024    9.0701    1.9208 H   0  0
   -2.5852    8.4515    1.5912 H   0  0
   -2.7558   10.0224    2.5187 H   0  0
   -2.0854    7.8771    5.1221 H   0  0
   -3.7026    8.4957    5.4516 H   0  0
   -2.4312    9.6494    4.8116 H   0  0
   -0.4345    6.6296    4.8491 H   0  0
   -1.2132    5.2244    5.5945 H   0  0
   -2.2401    6.6673    5.1380 H   0  0
    1.6314    4.6775    3.3259 H   0  0
    0.8533    3.2721    4.0714 H   0  0
    0.7416    4.8942    4.9092 H   0  0
  1  2  1  0
  2  3  1  0
  3  4  1  0
  4  5  2  0
  4  6  1  0
  6 12  1  0
  6  7  2  0
  7  8  1  0
  7 13  1  0
  8  9  1  0
  9 10  2  0
  9 11  1  0
 11 12  1  0
 13 14  1  0
 14 15  1  0
 15 16  2  0
 15 17  1  0
 17 22  2  0
 17 18  1  0
 18 19  2  0
 19 20  1  0
 19 30  1  0
 20 21  2  0
 20 29  1  0
 21 22  1  0
 21 23  1  0
 23 24  2  0
 23 25  2  0
 23 26  1  0
 26 27  1  0
 26 28  1  0
  1 31  1  0
  1 32  1  0
  1 33  1  0
  2 34  1  0
  2 35  1  0
  8 36  1  0
 11 37  1  0
 12 38  1  0
 12 39  1  0
 13 40  1  0
 13 41  1  0
 18 42  1  0
 22 43  1  0
 27 44  1  0
 27 45  1  0
 27 46  1  0
 28 47  1  0
 28 48  1  0
 28 49  1  0
 29 50  1  0
 29 51  1  0
 29 52  1  0
 30 53  1  0
 30 54  1  0
 30 55  1  0
M  END
> <Name>
ZINC18336931

> <reference>
BDB50023298

> <quality>
0.700

> <status>
decoy

$$$$
ZINC27922905
  SciTegic06061311253D

 49 51  0  0  1  0            999 V2000
    4.5886    5.2179   -0.0106 C   0  0
    5.0880    6.5030   -0.0152 C   0  0
    4.2225    7.5858   -0.0015 C   0  0
    2.8511    7.3836    0.0109 C   0  0
    2.3404    6.1029    0.0098 C   0  0
    3.2077    5.0081   -0.0039 C   0  0
    2.6669    3.6343   -0.0052 C   0  0
    3.4080    2.4868   -0.0180 C   0  0
    2.5092    1.4165   -0.0143 C   0  0
    1.2423    1.9609    0.0007 C   0  0
    1.3643    3.3056    0.0009 O   0  0
   -0.0144    1.2124    0.0087 C   0  0
    0.0021   -0.0041    0.0020 O   0  0
   -1.1921    1.8711    0.0179 O   0  0
   -2.3798    1.0766    0.0192 C   0  0
   -3.5873    1.9783    0.0298 C   0  0
   -3.4447    3.1826    0.0357 O   0  0
   -4.8256    1.4462    0.0328 N   0  0
   -5.9481    2.2845    0.0427 N   0  0
   -7.1864    1.7525    0.0457 C   0  0
   -7.3290    0.5481    0.0398 O   0  0
   -8.3939    2.6541    0.0563 C   0  0
   -9.6656    1.8035    0.0577 C   0  0  2  0  0  0
   -9.7801    1.0384   -1.2712 C   0  0
  -11.1989    0.4362   -1.4129 C   0  0
  -12.2312    1.5994   -0.4312 S   0  0
  -12.8017    0.8986    0.6654 O   0  0
  -13.0765    2.3257   -1.3128 O   0  0
  -10.9125    2.7230    0.1962 C   0  0
    4.7174    8.8428    0.0001 F   0  0
    5.2764    4.3594   -0.0122 H   0  0
    6.1752    6.6694   -0.0298 H   0  0
    2.1691    8.2466    0.0216 H   0  0
    1.2520    5.9436    0.0197 H   0  0
    4.5058    2.4181   -0.0291 H   0  0
    2.7634    0.3463   -0.0219 H   0  0
   -2.3932    0.4366    0.9137 H   0  0
   -2.4009    0.4470   -0.8825 H   0  0
   -4.9467    0.4234    0.0278 H   0  0
   -5.8270    3.3073    0.0477 H   0  0
   -8.3828    3.2942   -0.8382 H   0  0
   -8.3736    3.2838    0.9580 H   0  0
   -9.6169    1.0982    0.9004 H   0  0
   -9.0362    0.2284   -1.2932 H   0  0
   -9.5909    1.7276   -2.1074 H   0  0
  -11.5202    0.4482   -2.4649 H   0  0
  -11.2397   -0.5679   -0.9656 H   0  0
  -11.1009    2.9703    1.2514 H   0  0
  -10.8260    3.6023   -0.4590 H   0  0
  1  6  2  0
  1  2  1  0
  2  3  2  0
  3  4  1  0
  3 30  1  0
  4  5  2  0
  5  6  1  0
  6  7  1  0
  7 11  1  0
  7  8  2  0
  8  9  1  0
  9 10  2  0
 10 11  1  0
 10 12  1  0
 12 13  2  0
 12 14  1  0
 14 15  1  0
 15 16  1  0
 16 17  2  0
 16 18  1  0
 18 19  1  0
 19 20  1  0
 20 21  2  0
 20 22  1  0
 22 23  1  0
 23 29  1  0
 23 24  1  0
 24 25  1  0
 25 26  1  0
 26 27  2  0
 26 28  2  0
 26 29  1  0
  1 31  1  0
  2 32  1  0
  4 33  1  0
  5 34  1  0
  8 35  1  0
  9 36  1  0
 15 37  1  0
 15 38  1  0
 18 39  1  0
 19 40  1  0
 22 41  1  0
 22 42  1  0
 23 43  1  0
 24 44  1  0
 24 45  1  0
 25 46  1  0
 25 47  1  0
 29 48  1  0
 29 49  1  0
M  END
> <Name>
ZINC27922905

> <reference>
BDB50023298

> <quality>
0.696

> <status>
decoy

$$$$
ZINC22852812
  SciTegic06061311253D

 55 58  0  0  0  0            999 V2000
    4.6741   -9.8892    2.6548 C   0  0
    3.3816   -9.3439    2.4791 C   0  0
    3.2934   -8.9569    1.1938 C   0  0
    4.4553   -9.2427    0.5839 O   0  0
    5.2984   -9.8029    1.4665 C   0  0
    2.0922   -8.3172    0.5465 C   0  0
    2.1832   -6.8611    0.6798 N   0  0
    1.2127   -6.0760    0.1718 C   0  0
    0.2640   -6.5749   -0.3957 O   0  0
    1.3063   -4.5781    0.3088 C   0  0
    0.1673   -3.9715   -0.3049 O   0  0
    0.0965   -2.6130   -0.2692 C   0  0
    1.0706   -1.8897    0.3253 C   0  0
    1.0071   -0.5516    0.3636 O   0  0
   -0.0108    0.1268   -0.1779 C   0  0
   -1.0284   -0.5152   -0.7866 C   0  0
   -1.0041   -1.9305   -0.8574 C   0  0
   -1.9057   -2.5473   -1.4043 O   0  0
   -0.0235    1.6318   -0.1009 C   0  0
   -0.7120    2.0535    1.1264 N   0  0
   -2.1338    1.6865    1.0850 C   0  0
   -2.7729    1.9776    2.4470 C   0  0
   -2.5026    3.3796    2.7998 N   0  0
   -1.1138    3.8591    2.7312 C   0  0
   -0.5400    3.4939    1.3580 C   0  0
   -3.5010    4.2032    3.1757 C   0  0
   -3.2510    5.3403    3.5301 O   0  0
   -4.8887    3.7292    3.1574 C   0  0
   -5.9995    4.4901    3.3846 C   0  0
   -7.1058    3.6340    3.2682 C   0  0
   -6.6278    2.4037    2.9787 C   0  0
   -5.2918    2.4662    2.9075 O   0  0
    5.0895  -10.3044    3.5849 H   0  0
    2.5984   -9.2534    3.2462 H   0  0
    6.3253  -10.1349    1.2537 H   0  0
    2.0633   -8.5862   -0.5197 H   0  0
    1.1755   -8.6732    1.0395 H   0  0
    2.9889   -6.4374    1.1617 H   0  0
    1.3349   -4.3084    1.3748 H   0  0
    2.2219   -4.2202   -0.1847 H   0  0
    1.9269   -2.4059    0.7838 H   0  0
   -1.8650    0.0511   -1.2218 H   0  0
   -0.5512    2.0404   -0.9753 H   0  0
    1.0104    2.0072   -0.0881 H   0  0
   -2.2309    0.6149    0.8564 H   0  0
   -2.6427    2.2758    0.3080 H   0  0
   -3.8592    1.8154    2.3871 H   0  0
   -2.3370    1.3152    3.2093 H   0  0
   -1.0933    4.9513    2.8603 H   0  0
   -0.5165    3.3778    3.5196 H   0  0
    0.5306    3.7451    1.3296 H   0  0
   -1.0710    4.0583    0.5773 H   0  0
   -6.0229    5.5656    3.6143 H   0  0
   -8.1630    3.9123    3.3898 H   0  0
   -7.2358    1.4997    2.8266 H   0  0
  1  5  2  0
  1  2  1  0
  2  3  2  0
  3  4  1  0
  3  6  1  0
  4  5  1  0
  6  7  1  0
  7  8  1  0
  8  9  2  0
  8 10  1  0
 10 11  1  0
 11 12  1  0
 12 17  1  0
 12 13  2  0
 13 14  1  0
 14 15  1  0
 15 16  2  0
 15 19  1  0
 16 17  1  0
 17 18  2  0
 19 20  1  0
 20 25  1  0
 20 21  1  0
 21 22  1  0
 22 23  1  0
 23 24  1  0
 23 26  1  0
 24 25  1  0
 26 27  2  0
 26 28  1  0
 28 32  1  0
 28 29  2  0
 29 30  1  0
 30 31  2  0
 31 32  1  0
  1 33  1  0
  2 34  1  0
  5 35  1  0
  6 36  1  0
  6 37  1  0
  7 38  1  0
 10 39  1  0
 10 40  1  0
 13 41  1  0
 16 42  1  0
 19 43  1  0
 19 44  1  0
 21 45  1  0
 21 46  1  0
 22 47  1  0
 22 48  1  0
 24 49  1  0
 24 50  1  0
 25 51  1  0
 25 52  1  0
 29 53  1  0
 30 54  1  0
 31 55  1  0
M  END
> <Name>
ZINC22852812

> <reference>
BDB50023298

> <quality>
0.695

> <status>
decoy

$$$$
ZINC14880516
  SciTegic06061311253D

 62 64  0  0  1  0            999 V2000
   -5.6582    7.8399    2.7154 C   0  0
   -5.6778    6.9237    1.4901 C   0  0  1  0  0  0
   -6.8493    7.3084    0.5844 C   0  0
   -4.3653    7.0758    0.7186 C   0  0  2  0  0  0
   -3.2182    6.6226    1.5845 C   0  0
   -2.6995    7.2764    2.5908 N   0  0
   -1.7413    6.5886    3.1084 N   0  0
   -1.6123    5.4674    2.4617 C   0  0
   -2.5331    5.4655    1.4665 N   0  0
   -2.7134    4.4161    0.4633 C   0  0
   -2.2550    3.0766    1.0477 C   0  0
    0.0002    3.9152    1.4135 C   0  0
   -0.6382    4.3509    2.7362 C   0  0
   -0.5615    2.8046   -0.6589 C   0  0
    0.8488    2.3249   -0.8868 C   0  0
    1.1071    0.9715   -1.0008 C   0  0
    2.3983    0.5267   -1.2151 C   0  0
    3.4371    1.4380   -1.3166 C   0  0
    3.1772    2.8003   -1.2023 C   0  0
    1.8807    3.2394   -0.9871 C   0  0
    4.1934    3.6986   -1.3008 O   0  0
    3.8524    5.0805   -1.1736 C   0  0
    4.7079    1.0022   -1.5279 O   0  0
    4.9000   -0.4098   -1.6355 C   0  0
   -4.1746    8.4812    0.3517 N   0  0
   -3.4509    8.8707   -1.0860 S   0  0
   -3.4095   10.2911   -1.0980 O   0  0
   -2.2503    8.1108   -1.1052 O   0  0
   -4.5922    8.2681   -2.3607 C   0  0
   -0.8137    2.8475    0.7927 N   0  3
   -6.6013    7.7312    3.2710 H   0  0
   -5.5425    8.8847    2.3915 H   0  0
   -4.8161    7.5638    3.3671 H   0  0
   -5.7932    5.8791    1.8150 H   0  0
   -6.7347    8.3528    0.2586 H   0  0
   -7.7935    7.1992    1.1381 H   0  0
   -6.8640    6.6501   -0.2967 H   0  0
   -4.4022    6.4607   -0.1926 H   0  0
   -3.7760    4.3510    0.1864 H   0  0
   -2.1136    4.6515   -0.4282 H   0  0
   -2.8367    2.2623    0.5909 H   0  0
   -2.4351    3.0736    2.1328 H   0  0
    1.0155    3.5368    1.6031 H   0  0
    0.0540    4.7767    0.7317 H   0  0
    0.1445    4.7054    3.4230 H   0  0
   -1.1696    3.4992    3.1858 H   0  0
   -0.6817    3.8121   -1.0837 H   0  0
   -1.2698    2.1109   -1.1354 H   0  0
    0.2833    0.2470   -0.9208 H   0  0
    2.6011   -0.5507   -1.3050 H   0  0
    1.6725    4.3157   -0.8961 H   0  0
    3.3607    5.1889   -0.1956 H   0  0
    3.1036    5.2872   -1.9524 H   0  0
    4.7249    5.7442   -1.2642 H   0  0
    4.2547   -0.7478   -2.4597 H   0  0
    4.5129   -0.8465   -0.7031 H   0  0
    5.9515   -0.6844   -1.8055 H   0  0
   -4.4906    9.2270    0.9879 H   0  0
   -5.5681    8.7722   -2.3018 H   0  0
   -4.7200    7.1769   -2.3070 H   0  0
   -4.1543    8.5041   -3.3418 H   0  0
   -0.5459    1.9452    1.2111 H   0  0
  1  2  1  0
  2  3  1  0
  2  4  1  0
  4  5  1  0
  4 25  1  0
  5  9  1  0
  5  6  2  0
  6  7  1  0
  7  8  2  0
  8 13  1  0
  8  9  1  0
  9 10  1  0
 10 11  1  0
 11 30  1  0
 12 13  1  0
 12 30  1  0
 14 15  1  0
 14 30  1  0
 15 20  2  0
 15 16  1  0
 16 17  2  0
 17 18  1  0
 18 19  2  0
 18 23  1  0
 19 20  1  0
 19 21  1  0
 21 22  1  0
 23 24  1  0
 25 26  1  0
 26 27  2  0
 26 28  2  0
 26 29  1  0
  1 31  1  0
  1 32  1  0
  1 33  1  0
  2 34  1  0
  3 35  1  0
  3 36  1  0
  3 37  1  0
  4 38  1  0
 10 39  1  0
 10 40  1  0
 11 41  1  0
 11 42  1  0
 12 43  1  0
 12 44  1  0
 13 45  1  0
 13 46  1  0
 14 47  1  0
 14 48  1  0
 16 49  1  0
 17 50  1  0
 20 51  1  0
 22 52  1  0
 22 53  1  0
 22 54  1  0
 24 55  1  0
 24 56  1  0
 24 57  1  0
 25 58  1  0
 29 59  1  0
 29 60  1  0
 29 61  1  0
 30 62  1  0
M  CHG  1  30   1
M  END
> <Name>
ZINC14880516

> <reference>
BDB50023298

> <quality>
0.694

> <status>
decoy

$$$$
ZINC21637487
  SciTegic06061311253D

 55 57  0  0  0  0            999 V2000
    7.1036   -3.9584   -3.6095 C   0  0
    7.8931   -3.7497   -2.4368 O   0  0
    7.2239   -3.5561   -1.2679 C   0  0
    5.8387   -3.5672   -1.2524 C   0  0
    5.1581   -3.3710   -0.0653 C   0  0
    5.8602   -3.1575    1.1117 C   0  0
    7.2468   -3.1509    1.1012 C   0  0
    7.9304   -3.3473   -0.0877 C   0  0
    9.2902   -3.3366   -0.1010 O   0  0
    9.9495   -3.1166    1.1476 C   0  0
    5.1885   -2.9597    2.2772 O   0  0
    5.9750   -2.7458    3.4510 C   0  0
    3.6512   -3.3831   -0.0510 C   0  0
    3.1520   -2.0058   -0.0388 N   0  0
    1.8251   -1.7701   -0.0249 C   0  0
    1.0417   -2.7013   -0.0224 O   0  0
    1.3253   -0.3911   -0.0127 C   0  0
    0.0021   -0.0041    0.0020 C   0  0
   -0.0169    1.3941    0.0097 C   0  0
    1.2665    1.8272   -0.0002 C   0  0
    2.0918    0.7522   -0.0139 N   0  0
   -1.4551    2.4120    0.0224 S   0  0
   -1.0698    3.6661   -0.5236 O   0  0
   -2.5087    1.6331   -0.5275 O   0  0
   -1.8469    2.6863    1.6078 N   0  0
   -2.7598    1.7854    2.3292 C   0  0
   -2.0895    1.3834    3.6528 C   0  0
   -1.6812    2.5634    4.3490 O   0  0
   -0.7024    3.3423    3.6567 C   0  0
   -1.2973    3.8415    2.3350 C   0  0
    6.4498   -3.0787   -3.7027 H   0  0
    6.4671   -4.8314   -3.4024 H   0  0
    7.7139   -4.1070   -4.5125 H   0  0
    5.2800   -3.7323   -2.1854 H   0  0
    7.8036   -2.9898    2.0361 H   0  0
    9.5957   -3.9057    1.8274 H   0  0
    9.5790   -2.1530    1.5274 H   0  0
   11.0457   -3.1217    1.0566 H   0  0
    6.6115   -1.8733    3.2420 H   0  0
    6.6291   -3.6247    3.5494 H   0  0
    5.3623   -2.5939    4.3518 H   0  0
    3.2800   -3.8992   -0.9487 H   0  0
    3.2961   -3.9090    0.8475 H   0  0
    3.8151   -1.2176   -0.0408 H   0  0
   -0.8736   -0.6698    0.0068 H   0  0
    1.5866    2.8796    0.0024 H   0  0
    3.1212    0.7853   -0.0236 H   0  0
   -2.9496    0.8867    1.7240 H   0  0
   -3.7059    2.3063    2.5379 H   0  0
   -2.8049    0.8214    4.2712 H   0  0
   -1.2094    0.7571    3.4448 H   0  0
   -0.4123    4.2034    4.2766 H   0  0
    0.1824    2.7225    3.4494 H   0  0
   -0.5094    4.3169    1.7324 H   0  0
   -2.0996    4.5650    2.5421 H   0  0
  1  2  1  0
  2  3  1  0
  3  8  2  0
  3  4  1  0
  4  5  2  0
  5  6  1  0
  5 13  1  0
  6  7  2  0
  6 11  1  0
  7  8  1  0
  8  9  1  0
  9 10  1  0
 11 12  1  0
 13 14  1  0
 14 15  1  0
 15 16  2  0
 15 17  1  0
 17 21  1  0
 17 18  2  0
 18 19  1  0
 19 20  2  0
 19 22  1  0
 20 21  1  0
 22 23  2  0
 22 24  2  0
 22 25  1  0
 25 30  1  0
 25 26  1  0
 26 27  1  0
 27 28  1  0
 28 29  1  0
 29 30  1  0
  1 31  1  0
  1 32  1  0
  1 33  1  0
  4 34  1  0
  7 35  1  0
 10 36  1  0
 10 37  1  0
 10 38  1  0
 12 39  1  0
 12 40  1  0
 12 41  1  0
 13 42  1  0
 13 43  1  0
 14 44  1  0
 18 45  1  0
 20 46  1  0
 21 47  1  0
 26 48  1  0
 26 49  1  0
 27 50  1  0
 27 51  1  0
 29 52  1  0
 29 53  1  0
 30 54  1  0
 30 55  1  0
M  END
> <Name>
ZINC21637487

> <reference>
BDB50023298

> <quality>
0.694

> <status>
decoy

$$$$
ZINC09525908
  SciTegic06061311253D

 54 56  0  0  1  0            999 V2000
    4.6576   -1.6379   -0.0524 C   0  0
    3.8948   -0.3382   -0.0378 C   0  0
    2.5505   -0.1902   -0.0233 C   0  0
    2.3609    1.2173   -0.0139 C   0  0
    3.5561    1.7466   -0.0283 N   0  0
    4.4164    0.8970   -0.0366 O   0  0
    1.1435    1.8982    0.0013 N   0  0
   -0.0144    1.2086    0.0087 C   0  0
    0.0021   -0.0041    0.0020 O   0  0
   -1.3296    1.9442    0.0189 C   0  0
   -2.4203    0.9858    0.0189 O   0  0
   -3.6675    1.4819    0.0275 C   0  0
   -3.8420    2.6775    0.0348 O   0  0
   -4.8500    0.5478    0.0280 C   0  0  1  0  0  0
   -4.9372   -0.2339    1.3594 C   0  0
   -6.4213   -0.3316    1.6357 C   0  0
   -6.9320   -1.0980    2.4249 O   0  0
   -7.0917    0.5546    0.8794 N   0  0
   -6.1780    1.3370    0.0386 C   0  0
   -8.4839    0.7115    0.8923 N   0  0
   -9.2705   -0.2006    0.2877 C   0  0
   -8.7722   -1.1594   -0.2689 O   0  0
  -10.7398   -0.0350    0.3013 C   0  0
  -11.3142    1.0618    0.9446 C   0  0
  -12.6907    1.2161    0.9501 C   0  0
  -13.4986    0.2758    0.3274 C   0  0
  -12.9319   -0.8193   -0.3084 C   0  0
  -11.5560   -0.9780   -0.3240 C   0  0
  -13.7278   -1.7374   -0.9172 O   0  0
  -15.1378   -1.5115   -0.8626 C   0  0
  -13.2509    2.2871    1.5716 O   0  0
  -14.6766    2.3804    1.5442 C   0  0
    5.3208   -1.5320    0.8188 H   0  0
    5.3029   -1.5227   -0.9357 H   0  0
    4.0575   -2.5598   -0.0512 H   0  0
    1.7822   -0.9774   -0.0196 H   0  0
    1.1295    2.9281    0.0069 H   0  0
   -1.3926    2.5705    0.9210 H   0  0
   -1.4019    2.5808   -0.8753 H   0  0
   -4.7159   -0.0906   -0.8577 H   0  0
   -4.4389    0.3287    2.1627 H   0  0
   -4.5080   -1.2392    1.2365 H   0  0
   -6.5786    1.4129   -0.9830 H   0  0
   -6.0195    2.3322    0.4796 H   0  0
   -8.9062    1.5240    1.3639 H   0  0
  -10.6749    1.8029    1.4467 H   0  0
  -14.5916    0.3989    0.3378 H   0  0
  -11.1075   -1.8464   -0.8287 H   0  0
  -15.3101   -0.5220   -1.3112 H   0  0
  -15.3999   -1.4488    0.2039 H   0  0
  -15.7144   -2.2950   -1.3761 H   0  0
  -15.0560    1.4532    1.9984 H   0  0
  -14.9663    2.3795    0.4830 H   0  0
  -15.0547    3.2716    2.0666 H   0  0
  1  2  1  0
  2  6  1  0
  2  3  2  0
  3  4  1  0
  4  5  2  0
  4  7  1  0
  5  6  1  0
  7  8  1  0
  8  9  2  0
  8 10  1  0
 10 11  1  0
 11 12  1  0
 12 13  2  0
 12 14  1  0
 14 19  1  0
 14 15  1  0
 15 16  1  0
 16 17  2  0
 16 18  1  0
 18 19  1  0
 18 20  1  0
 20 21  1  0
 21 22  2  0
 21 23  1  0
 23 28  2  0
 23 24  1  0
 24 25  2  0
 25 26  1  0
 25 31  1  0
 26 27  2  0
 27 28  1  0
 27 29  1  0
 29 30  1  0
 31 32  1  0
  1 33  1  0
  1 34  1  0
  1 35  1  0
  3 36  1  0
  7 37  1  0
 10 38  1  0
 10 39  1  0
 14 40  1  0
 15 41  1  0
 15 42  1  0
 19 43  1  0
 19 44  1  0
 20 45  1  0
 24 46  1  0
 26 47  1  0
 28 48  1  0
 30 49  1  0
 30 50  1  0
 30 51  1  0
 32 52  1  0
 32 53  1  0
 32 54  1  0
M  END
> <Name>
ZINC09525908

> <reference>
BDB50023298

> <quality>
0.694

> <status>
decoy

$$$$
ZINC14868835
  SciTegic06061311253D

 45 46  0  0  0  0            999 V2000
   -2.9420    0.4709    1.9704 C   0  0
   -2.6882    1.5939    0.9980 C   0  0
   -1.4997    2.2984    1.0505 C   0  0
   -1.2649    3.3251    0.1555 C   0  0
   -2.2226    3.6543   -0.7857 C   0  0
   -3.4105    2.9497   -0.8384 C   0  0
   -3.6432    1.9192    0.0534 C   0  0
   -5.1576    1.0210   -0.0138 S   0  0
   -5.9371    1.6155   -1.0425 O   0  0
   -4.8123   -0.3574   -0.0198 O   0  0
   -5.9574    1.3024    1.4087 N   0  5
   -6.4407    2.5807    1.6970 C   0  0
   -5.6299    3.6918    1.5025 C   0  0
   -6.1126    4.9547    1.7841 C   0  0
   -7.3979    5.1131    2.2692 C   0  0
   -8.2059    4.0088    2.4690 C   0  0
   -7.7313    2.7434    2.1844 C   0  0
   -8.0076    6.7257    2.6330 S   0  0
   -7.2493    7.6338    1.8458 O   0  0
   -9.4246    6.6509    2.5569 O   0  0
   -7.6347    7.0449    4.2146 N   0  0
   -6.2339    7.1581    4.6285 C   0  0
   -6.1626    7.8018    5.9892 C   0  0
   -7.1777    8.1322    6.5552 O   0  0
   -4.9714    8.0082    6.5724 O   0  0
   -4.9786    8.6329    7.8832 C   0  0
   -1.9733    4.7573   -1.7408 N   0  0
   -2.8150    5.0440   -2.5732 O   0  0
   -0.9286    5.3815   -1.6911 O   0  0
   -3.1501   -0.4086    1.3433 H   0  0
   -3.8809    0.7384    2.4772 H   0  0
   -2.1165    0.2986    2.6767 H   0  0
   -0.7410    2.0418    1.8045 H   0  0
   -0.3160    3.8803    0.1920 H   0  0
   -4.1708    3.2089   -1.5899 H   0  0
   -4.6046    3.5658    1.1246 H   0  0
   -5.4740    5.8356    1.6224 H   0  0
   -9.2278    4.1384    2.8550 H   0  0
   -8.3746    1.8654    2.3435 H   0  0
   -8.3876    7.1639    4.9073 H   0  0
   -5.6846    7.7754    3.9024 H   0  0
   -5.7826    6.1560    4.6734 H   0  0
   -5.5955    7.9910    8.5292 H   0  0
   -5.4995    9.5946    7.7655 H   0  0
   -3.9670    8.7678    8.2936 H   0  0
  1  2  1  0
  2  7  2  0
  2  3  1  0
  3  4  2  0
  4  5  1  0
  5  6  2  0
  5 27  1  0
  6  7  1  0
  7  8  1  0
  8  9  2  0
  8 10  2  0
  8 11  1  0
 11 12  1  0
 12 17  2  0
 12 13  1  0
 13 14  2  0
 14 15  1  0
 15 16  2  0
 15 18  1  0
 16 17  1  0
 18 19  2  0
 18 20  2  0
 18 21  1  0
 21 22  1  0
 22 23  1  0
 23 24  2  0
 23 25  1  0
 25 26  1  0
 27 28  2  0
 27 29  2  0
  1 30  1  0
  1 31  1  0
  1 32  1  0
  3 33  1  0
  4 34  1  0
  6 35  1  0
 13 36  1  0
 14 37  1  0
 16 38  1  0
 17 39  1  0
 21 40  1  0
 22 41  1  0
 22 42  1  0
 26 43  1  0
 26 44  1  0
 26 45  1  0
M  CHG  1  11  -1
M  END
> <Name>
ZINC14868835

> <reference>
BDB50023298

> <quality>
0.693

> <status>
decoy

$$$$
ZINC26274471
  SciTegic06061311253D

 47 48  0  0  0  0            999 V2000
   -5.5086    3.6295   -2.1313 C   0  0
   -4.0319    3.2400   -2.2247 C   0  0
   -3.2185    4.2387   -1.5268 N   0  0
   -2.7964    5.4564   -2.2236 C   0  0
   -1.5142    5.1757   -3.0097 C   0  0
   -2.7760    3.9913    0.0497 S   0  0
   -3.7319    3.0981    0.6044 O   0  0
   -2.5191    5.2736    0.6055 O   0  0
   -1.2370    3.1334    0.0303 C   0  0
   -1.2177    1.7507    0.0173 C   0  0
   -0.0126    1.0758    0.0080 C   0  0
    1.1791    1.7864    0.0004 C   0  0
    1.1570    3.1734    0.0081 C   0  0
   -0.0511    3.8437    0.0233 C   0  0
    2.4263    3.9345    0.0006 N   0  0
    2.4062    5.1523    0.0073 O   0  0
    3.4910    3.3430   -0.0124 O   0  0
    2.3661    1.1248   -0.0150 O   0  0
    2.3127   -0.3032   -0.0227 C   0  0
    3.7137   -0.8581   -0.0395 C   0  0
    4.6642   -0.1050   -0.0445 O   0  0
    3.9104   -2.1915   -0.0491 N   0  0
    5.1973   -2.7012   -0.0646 C   0  0
    6.3354   -1.9588   -0.0768 N   0  5
    7.3978   -2.8385   -0.0865 C   0  0
    6.8446   -4.1150   -0.0890 C   0  0
    5.5072   -3.9758   -0.0754 N   0  0
    7.5673   -5.3511   -0.1036 C   0  0
    8.1407   -6.3318   -0.1151 N   0  0
    8.7903   -2.5048   -0.0985 C   0  0
    9.8950   -2.2401   -0.1080 N   0  0
   -5.6593    4.6145   -2.5971 H   0  0
   -5.8110    3.6742   -1.0746 H   0  0
   -6.1200    2.8800   -2.6552 H   0  0
   -3.8821    2.2551   -1.7584 H   0  0
   -3.7295    3.1953   -3.2814 H   0  0
   -3.5885    5.7756   -2.9170 H   0  0
   -2.6084    6.2538   -1.4896 H   0  0
   -1.7007    4.3792   -3.7451 H   0  0
   -0.7210    4.8565   -2.3176 H   0  0
   -1.1967    6.0896   -3.5331 H   0  0
   -2.1628    1.1879    0.0144 H   0  0
    0.0023   -0.0241    0.0066 H   0  0
   -0.0693    4.9435    0.0298 H   0  0
    1.7725   -0.6462   -0.9174 H   0  0
    1.7901   -0.6556    0.8788 H   0  0
    3.1031   -2.8312   -0.0449 H   0  0
  1  2  1  0
  2  3  1  0
  3  4  1  0
  3  6  1  0
  4  5  1  0
  6  7  2  0
  6  8  2  0
  6  9  1  0
  9 14  2  0
  9 10  1  0
 10 11  2  0
 11 12  1  0
 12 13  2  0
 12 18  1  0
 13 14  1  0
 13 15  1  0
 15 16  2  0
 15 17  2  0
 18 19  1  0
 19 20  1  0
 20 21  2  0
 20 22  1  0
 22 23  1  0
 23 27  2  0
 23 24  1  0
 24 25  1  0
 25 26  2  0
 25 30  1  0
 26 27  1  0
 26 28  1  0
 28 29  3  0
 30 31  3  0
  1 32  1  0
  1 33  1  0
  1 34  1  0
  2 35  1  0
  2 36  1  0
  4 37  1  0
  4 38  1  0
  5 39  1  0
  5 40  1  0
  5 41  1  0
 10 42  1  0
 11 43  1  0
 14 44  1  0
 19 45  1  0
 19 46  1  0
 22 47  1  0
M  CHG  1  24  -1
M  END
> <Name>
ZINC26274471

> <reference>
BDB50023298

> <quality>
0.692

> <status>
decoy

$$$$
ZINC13496140
  SciTegic06061311253D

 44 46  0  0  0  0            999 V2000
   -2.7112  -15.5314    3.8604 C   0  0
   -2.9490  -14.8170    2.5285 C   0  0
   -1.7806  -15.4425    1.2898 S   0  0
   -2.1448  -16.7577    0.8937 O   0  0
   -0.4470  -15.1472    1.6818 O   0  0
   -2.0431  -14.5089   -0.0525 N   0  0
   -1.7778  -13.1396   -0.0127 C   0  0
   -0.4638  -12.6860   -0.0530 C   0  0
   -0.1984  -11.3346   -0.0134 C   0  0
   -1.2509  -10.4198    0.0669 C   0  0
   -2.5693  -10.8789    0.1121 C   0  0
   -2.8280  -12.2315    0.0668 C   0  0
   -0.9701   -8.9704    0.1100 C   0  0
    0.2137   -8.4079    0.0809 N   0  0
    0.0813   -7.1294    0.1356 N   0  0
   -1.1935   -6.8245    0.2019 C   0  0
   -1.8860   -7.9800    0.1923 O   0  0
   -1.8741   -5.2019    0.2942 S   0  0
   -0.3531   -4.2211    0.2667 C   0  0
   -0.6987   -2.7560    0.3384 C   0  0
   -1.8591   -2.4091    0.4019 O   0  0
    0.2817   -1.8313    0.3320 N   0  0
   -0.0373   -0.4792    0.3982 C   0  0
   -1.2212    0.1045    0.4723 N   0  0
   -1.3437    1.3597    0.5263 N   0  0
   -0.2813    2.1398    0.5102 C   0  0
    1.0119    0.9081    0.4063 S   0  0
   -0.1838    3.6427    0.5637 C   0  0
   -1.6821  -15.3430    4.2003 H   0  0
   -2.8613  -16.6132    3.7295 H   0  0
   -3.4194  -15.1526    4.6120 H   0  0
   -2.7990  -13.7352    2.6594 H   0  0
   -3.9782  -15.0062    2.1894 H   0  0
   -2.4022  -14.9390   -0.9168 H   0  0
    0.3646  -13.4069   -0.1166 H   0  0
    0.8412  -10.9765   -0.0450 H   0  0
   -3.4001  -10.1615    0.1838 H   0  0
   -3.8664  -12.5934    0.0935 H   0  0
    0.1973   -4.4221   -0.6642 H   0  0
    0.2737   -4.4921    1.1291 H   0  0
    1.2672   -2.1259    0.2781 H   0  0
   -0.7639    3.8614    1.4724 H   0  0
   -0.8395    3.9284   -0.2720 H   0  0
    0.8198    4.0923    0.5375 H   0  0
  1  2  1  0
  2  3  1  0
  3  4  2  0
  3  5  2  0
  3  6  1  0
  6  7  1  0
  7 12  2  0
  7  8  1  0
  8  9  2  0
  9 10  1  0
 10 11  2  0
 10 13  1  0
 11 12  1  0
 13 17  1  0
 13 14  2  0
 14 15  1  0
 15 16  2  0
 16 17  1  0
 16 18  1  0
 18 19  1  0
 19 20  1  0
 20 21  2  0
 20 22  1  0
 22 23  1  0
 23 27  1  0
 23 24  2  0
 24 25  1  0
 25 26  2  0
 26 27  1  0
 26 28  1  0
  1 29  1  0
  1 30  1  0
  1 31  1  0
  2 32  1  0
  2 33  1  0
  6 34  1  0
  8 35  1  0
  9 36  1  0
 11 37  1  0
 12 38  1  0
 19 39  1  0
 19 40  1  0
 22 41  1  0
 28 42  1  0
 28 43  1  0
 28 44  1  0
M  END
> <Name>
ZINC13496140

> <reference>
BDB50023298

> <quality>
0.688

> <status>
decoy

$$$$
ZINC05066639
  SciTegic06061311253D

 31 32  0  0  1  0            999 V2000
   -0.4533   -4.9522   -0.1661 C   0  0
   -0.6788   -3.8726   -1.2266 C   0  0  1  0  0  0
   -2.0873   -3.6673   -1.4345 O   0  0
   -2.4998   -2.6310   -0.5266 C   0  0  2  0  0  0
   -2.9831   -1.4149   -1.3393 C   0  0  1  0  0  0
   -1.9485   -0.4185   -1.2632 O   0  0
   -1.2953   -0.6030    0.0112 C   0  0  1  0  0  0
   -1.1837   -2.1409    0.1467 C   0  0  2  0  0  0
   -0.1620   -2.6053   -0.7657 O   0  0
    0.0021   -0.0041    0.0020 O   0  0
   -0.0173    1.4248    0.0099 C   0  0
   -3.2109   -1.8195   -2.7971 C   0  0
   -3.6481   -0.6513   -3.5655 N   0  0
   -3.0379   -0.2925   -4.4386 N   0  3
   -2.4278    0.0664   -5.3117 N   0  5
   -0.0041   -4.2740   -2.5398 C   0  0
   -0.9686   -4.6618    0.7614 H   0  0
    0.6247   -5.0461    0.0314 H   0  0
   -0.8491   -5.9143   -0.5235 H   0  0
   -3.2760   -2.9949    0.1627 H   0  0
   -3.9318   -1.0273   -0.9397 H   0  0
   -1.8436   -0.1388    0.8442 H   0  0
   -0.9942   -2.4626    1.1814 H   0  0
   -0.5643    1.7440    0.9093 H   0  0
   -0.5814    1.7537   -0.8754 H   0  0
    1.0001    1.8429    0.0024 H   0  0
   -3.9846   -2.5999   -2.8456 H   0  0
   -2.2727   -2.2065   -3.2213 H   0  0
   -0.4300   -5.2261   -2.8894 H   0  0
    1.0752   -4.4000   -2.3686 H   0  0
   -0.1697   -3.4942   -3.2978 H   0  0
  1  2  1  0
  2  9  1  0
  2  3  1  0
  2 16  1  0
  3  4  1  0
  4  8  1  0
  4  5  1  0
  5  6  1  0
  5 12  1  0
  6  7  1  0
  7  8  1  0
  7 10  1  0
  8  9  1  0
 10 11  1  0
 12 13  1  0
 13 14  2  0
 14 15  2  0
  1 17  1  0
  1 18  1  0
  1 19  1  0
  4 20  1  0
  5 21  1  0
  7 22  1  0
  8 23  1  0
 11 24  1  0
 11 25  1  0
 11 26  1  0
 12 27  1  0
 12 28  1  0
 16 29  1  0
 16 30  1  0
 16 31  1  0
M  CHG  2  14   1  15  -1
M  END
> <Name>
ZINC05066639

> <reference>
BDB21642

> <quality>
0.810

> <status>
decoy

$$$$
ZINC05500527
  SciTegic06061311253D

 16 15  0  0  0  0            999 V2000
    1.3335    2.9674   -1.1967 C   0  0
    1.3760    3.6262   -2.1212 N   0  0
    1.2785    2.1137    0.0012 C   0  5
    1.3565    2.9545    1.2069 C   0  0
    1.4166    3.6033    2.1374 N   0  0
   -0.0162    1.3425    0.0094 C   0  0
    0.0021   -0.0041    0.0020 C   0  0
   -1.2282   -0.7369    0.0098 C   0  0
   -2.2042   -1.3182    0.0160 N   0  0
    1.2518   -0.7031   -0.0137 C   0  0
    2.2431   -1.2577   -0.0261 N   0  0
   -1.3314    2.0782    0.0197 C   0  5
   -1.4151    2.9168    1.2265 C   0  0
   -1.4798    3.5639    2.1579 N   0  0
   -1.4265    2.9298   -1.1772 C   0  0
   -1.5000    3.5871   -2.1008 N   0  0
  1  2  3  0
  1  3  1  0
  3  4  1  0
  3  6  1  0
  4  5  3  0
  6  7  2  0
  6 12  1  0
  7  8  1  0
  7 10  1  0
  8  9  3  0
 10 11  3  0
 12 13  1  0
 12 15  1  0
 13 14  3  0
 15 16  3  0
M  CHG  2   3  -1  12  -1
M  END
> <Name>
ZINC05500527

> <reference>
BDB21642

> <quality>
0.808

> <status>
decoy

$$$$
ZINC05848122
  SciTegic06061311253D

 24 26  0  0  1  0            999 V2000
   -2.2267   -0.0457   -1.0261 C   0  0
   -2.5067   -0.5498   -2.4510 C   0  0
   -2.5258   -1.9792   -2.4473 O   0  0
   -1.2828   -2.5803   -2.0766 C   0  0
   -0.9378   -2.1797   -0.6377 C   0  0
   -1.0115   -0.7137   -0.5337 N   0  0
    0.0021   -0.0041    0.0020 C   0  0
   -0.0084    1.3179   -0.0049 N   0  0
    0.9021    2.0663    0.6088 C   0  0
    1.7121    1.5768    1.5373 N   0  0
    1.7258    0.2608    1.6879 C   0  0
    1.9236   -0.5208    2.7149 N   0  0
    1.3991   -1.6785    2.5327 N   0  0
    0.8990   -1.8793    1.4118 N   0  0
    1.1812   -0.6846    0.6263 C   0  5
   -2.0706    1.0430   -1.0441 H   0  0
   -3.0763   -0.2942   -0.3731 H   0  0
   -3.4820   -0.1705   -2.7900 H   0  0
   -1.7166   -0.1952   -3.1292 H   0  0
   -1.3700   -3.6749   -2.1416 H   0  0
   -0.4889   -2.2329   -2.7541 H   0  0
    0.0807   -2.5160   -0.3938 H   0  0
   -1.6598   -2.6356    0.0557 H   0  0
    0.9867    3.1288    0.3370 H   0  0
  1  6  1  0
  1  2  1  0
  2  3  1  0
  3  4  1  0
  4  5  1  0
  5  6  1  0
  6  7  1  0
  7 15  1  0
  7  8  2  0
  8  9  1  0
  9 10  2  0
 10 11  1  0
 11 15  1  0
 11 12  2  0
 12 13  1  0
 13 14  2  0
 14 15  1  0
  1 16  1  0
  1 17  1  0
  2 18  1  0
  2 19  1  0
  4 20  1  0
  4 21  1  0
  5 22  1  0
  5 23  1  0
  9 24  1  0
M  CHG  1  15  -1
M  END
> <Name>
ZINC05848122

> <reference>
BDB21642

> <quality>
0.802

> <status>
decoy

$$$$
ZINC25564130
  SciTegic06061311253D

 32 34  0  0  0  0            999 V2000
   10.0290    1.4818   -5.1283 C   0  0
    8.9096    1.7412   -4.2196 N   0  0
    7.7586    1.0362   -4.3610 C   0  0
    6.7074    1.2460   -3.5363 C   0  0
    6.7966    2.2191   -2.5173 C   0  0
    7.9722    2.9348   -2.3769 C   0  0
    9.0404    2.6743   -3.2584 C   0  0
   10.0848    3.2957   -3.1505 O   0  0
    5.6505    2.4658   -1.6078 C   0  0
    5.7398    3.3021   -0.7310 O   0  0
    4.5103    1.7622   -1.7543 N   0  0
    3.4378    1.9931   -0.9033 C   0  0
    2.2528    1.4138   -0.8873 N   0  0
    1.3379    1.7542   -0.0013 C   0  0
    1.6383    2.7236    0.8978 C   0  0
    3.3126    3.1179    0.4138 S   0  0
   -0.0127    1.0858    0.0080 C   0  0  1  0  0  0
   -1.1356    1.7728    0.7878 C   0  0
   -1.1502    1.7810   -0.7428 C   0  0
   10.8767    1.2192   -4.4784 H   0  0
   10.2588    2.4526   -5.5917 H   0  0
    9.8193    0.7023   -5.8755 H   0  0
    7.6794    0.2827   -5.1585 H   0  0
    5.7848    0.6597   -3.6592 H   0  0
    8.0716    3.6959   -1.5889 H   0  0
    2.0384    0.6821   -1.5798 H   0  0
    1.0216    3.1497    1.7029 H   0  0
    0.4231    0.0758   -0.0016 H   0  0
   -0.8113    2.7430    1.1923 H   0  0
   -1.8506    1.0417    1.1932 H   0  0
   -1.8735    1.0548   -1.1422 H   0  0
   -0.8328    2.7552   -1.1431 H   0  0
  1  2  1  0
  2  7  1  0
  2  3  1  0
  3  4  2  0
  4  5  1  0
  5  6  2  0
  5  9  1  0
  6  7  1  0
  7  8  2  0
  9 10  2  0
  9 11  1  0
 11 12  2  0
 12 16  1  0
 12 13  1  0
 13 14  1  0
 14 15  2  0
 14 17  1  0
 15 16  1  0
 17 19  1  0
 17 18  1  0
 18 19  1  0
  1 20  1  0
  1 21  1  0
  1 22  1  0
  3 23  1  0
  4 24  1  0
  6 25  1  0
 13 26  1  0
 15 27  1  0
 17 28  1  0
 18 29  1  0
 18 30  1  0
 19 31  1  0
 19 32  1  0
M  END
> <Name>
ZINC25564130

> <reference>
BDB21642

> <quality>
0.789

> <status>
decoy

$$$$
ZINC01716687
  SciTegic06061311253D

 33 33  0  0  1  0            999 V2000
   -0.6305    1.8122   -4.7551 C   0  0
   -1.6839    1.5593   -3.6748 C   0  0
   -1.0728    1.8180   -2.2961 C   0  0
   -2.1262    1.5650   -1.2158 C   0  0  1  0  0  0
   -2.5168    0.0857   -1.2207 C   0  0
   -1.5523    1.9364    0.1530 C   0  5
   -0.2485    1.1833    0.3383 C   0  0
   -0.2094   -0.0274    0.2891 O   0  0
    0.8674    1.9115    0.5544 N   0  0
    0.8412    3.2480    0.6110 C   0  0
    1.8924    3.8239    0.8091 O   0  0
   -0.2580    3.9966    0.4650 N   0  0
   -1.4714    3.4487    0.2416 C   0  0
   -2.4590    4.1398    0.1117 O   0  0
   -0.1415    5.4544    0.5505 C   0  0
    2.1453    1.2176    0.7327 C   0  0
    0.2239    1.1367   -4.6009 H   0  0
   -0.2873    2.8557   -4.6969 H   0  0
   -1.0692    1.6264   -5.7466 H   0  0
   -2.5377    2.2354   -3.8296 H   0  0
   -2.0272    0.5159   -3.7329 H   0  0
   -0.7300    2.8615   -2.2357 H   0  0
   -0.2191    1.1419   -2.1405 H   0  0
   -3.0154    2.1796   -1.4197 H   0  0
   -1.6283   -0.5299   -1.0167 H   0  0
   -2.9298   -0.1823   -2.2044 H   0  0
   -3.2742   -0.0969   -0.4442 H   0  0
    0.5957    5.7365   -0.2156 H   0  0
    0.3091    5.6569    1.5333 H   0  0
   -1.0994    5.9786    0.4174 H   0  0
    2.2776    0.6073   -0.1728 H   0  0
    1.9906    0.5281    1.5757 H   0  0
    2.9933    1.8974    0.9026 H   0  0
  1  2  1  0
  2  3  1  0
  3  4  1  0
  4  5  1  0
  4  6  1  0
  6 13  1  0
  6  7  1  0
  7  8  2  0
  7  9  1  0
  9 10  1  0
  9 16  1  0
 10 11  2  0
 10 12  1  0
 12 13  1  0
 12 15  1  0
 13 14  2  0
  1 17  1  0
  1 18  1  0
  1 19  1  0
  2 20  1  0
  2 21  1  0
  3 22  1  0
  3 23  1  0
  4 24  1  0
  5 25  1  0
  5 26  1  0
  5 27  1  0
 15 28  1  0
 15 29  1  0
 15 30  1  0
 16 31  1  0
 16 32  1  0
 16 33  1  0
M  CHG  1   6  -1
M  END
> <Name>
ZINC01716687

> <reference>
BDB21642

> <quality>
0.770

> <status>
decoy

$$$$
ZINC21359750
  SciTegic06061311253D

 29 30  0  0  0  0            999 V2000
    4.8237    4.2892   -0.0203 C   0  0
    3.5284    3.5192   -0.0126 C   0  0
    3.5483    2.1316   -0.0203 C   0  0
    2.4183    1.4539   -0.0132 N   0  0
    1.2561    2.1014    0.0014 C   0  0
    1.2395    3.4956    0.0032 C   0  0
    2.3771    4.1671    0.0018 N   0  0
   -0.0162    1.3436    0.0094 C   0  0
   -1.0768    1.9368    0.0177 O   0  0
    0.0021   -0.0041    0.0020 N   0  0
   -1.1910   -0.7147    0.0096 C   0  0
   -2.4280   -0.2573    0.0297 N   0  0
   -3.4600   -1.0780    0.0293 C   0  0
   -3.2238   -2.4129    0.0199 C   0  0
   -1.4371   -2.4337    0.0027 S   0  0
   -4.1988   -3.5619    0.0234 C   0  0
   -4.8693   -0.5446    0.0456 C   0  0
    4.7823    4.9337    0.8702 H   0  0
    4.7658    4.9437   -0.9025 H   0  0
    5.7172    3.6478   -0.0323 H   0  0
    4.5093    1.5964   -0.0324 H   0  0
    0.2810    4.0353    0.0058 H   0  0
   -2.5908    0.7596    0.0460 H   0  0
   -4.8286   -3.3079   -0.8420 H   0  0
   -4.8114   -3.3172    0.9037 H   0  0
   -3.7909   -4.5834    0.0140 H   0  0
   -4.9322    0.1147   -0.8326 H   0  0
   -4.9185    0.0967    0.9380 H   0  0
   -5.6427   -1.3268    0.0436 H   0  0
  1  2  1  0
  2  7  2  0
  2  3  1  0
  3  4  2  0
  4  5  1  0
  5  6  2  0
  5  8  1  0
  6  7  1  0
  8  9  2  0
  8 10  1  0
 10 11  2  0
 11 15  1  0
 11 12  1  0
 12 13  1  0
 13 14  2  0
 13 17  1  0
 14 15  1  0
 14 16  1  0
  1 18  1  0
  1 19  1  0
  1 20  1  0
  3 21  1  0
  6 22  1  0
 12 23  1  0
 16 24  1  0
 16 25  1  0
 16 26  1  0
 17 27  1  0
 17 28  1  0
 17 29  1  0
M  END
> <Name>
ZINC21359750

> <reference>
BDB21642

> <quality>
0.766

> <status>
decoy

$$$$
ZINC03813070
  SciTegic06061311253D

 32 33  0  0  0  0            999 V2000
   -8.9440    4.8217    0.2120 C   0  0
   -7.4348    5.0561    0.1216 C   0  0
   -6.7428    3.7808    0.1770 O   0  0
   -5.3984    3.8114    0.1090 C   0  0
   -4.8194    4.8746    0.0061 O   0  0
   -4.6951    2.6627    0.1550 N   0  0
   -3.3089    2.6942    0.0848 C   0  0
   -2.4602    1.6311    0.1123 C   0  0
   -1.2287    2.1721    0.0197 N   0  3
   -1.3613    3.4487   -0.0638 N   0  0
   -2.5253    3.7824   -0.0303 O   0  0
   -0.0179    1.4673    0.0101 N   0  0
    1.2714    2.1765    0.0016 C   0  0
    2.1513    1.5934    1.1132 C   0  0
    2.2078    0.1719    0.9719 O   0  0
    0.9439   -0.4809    1.1136 C   0  0
    0.0021   -0.0041    0.0020 C   0  0
   -9.1816    4.3173    1.1602 H   0  0
   -9.2693    4.1920   -0.6292 H   0  0
   -9.4689    5.7875    0.1701 H   0  0
   -7.1981    5.5602   -0.8270 H   0  0
   -7.1094    5.6859    0.9627 H   0  0
   -5.1860    1.7614    0.2422 H   0  0
   -2.7212    0.5655    0.1924 H   0  0
    1.1062    3.2482    0.1865 H   0  0
    1.7647    2.0351   -0.9714 H   0  0
    3.1662    2.0105    1.0352 H   0  0
    1.7226    1.8476    2.0938 H   0  0
    1.0817   -1.5694    1.0356 H   0  0
    0.5092   -0.2336    2.0933 H   0  0
   -1.0116   -0.3887    0.1876 H   0  0
    0.3681   -0.3645   -0.9707 H   0  0
  1  2  1  0
  2  3  1  0
  3  4  1  0
  4  5  2  0
  4  6  1  0
  6  7  1  0
  7 11  1  0
  7  8  2  0
  8  9  1  0
  9 10  2  0
  9 12  1  0
 10 11  1  0
 12 17  1  0
 12 13  1  0
 13 14  1  0
 14 15  1  0
 15 16  1  0
 16 17  1  0
  1 18  1  0
  1 19  1  0
  1 20  1  0
  2 21  1  0
  2 22  1  0
  6 23  1  0
  8 24  1  0
 13 25  1  0
 13 26  1  0
 14 27  1  0
 14 28  1  0
 16 29  1  0
 16 30  1  0
 17 31  1  0
 17 32  1  0
M  CHG  1   9   1
M  END
> <Name>
ZINC03813070

> <reference>
BDB21642

> <quality>
0.759

> <status>
decoy

$$$$
ZINC05686397
  SciTegic06061311253D

 32 33  0  0  0  0            999 V2000
    3.5677    2.0652   -0.0209 C   0  0
    2.3672    1.1168   -0.0145 C   0  0
    1.1389    1.8910    0.0013 O   0  0
   -0.0143    1.2041    0.0087 C   0  0
    0.0021   -0.0041    0.0020 O   0  0
   -1.3295    1.9397    0.0189 C   0  0
   -2.4615    0.9450    0.0189 C   0  0
   -3.0447    0.5578    1.1920 C   0  0
   -4.0428   -0.3191    1.1874 N   0  0
   -4.4980   -0.8392    0.0573 C   0  0
   -5.5288   -1.7729   -0.2112 C   0  0
   -5.5865   -1.9655   -1.5433 C   0  0
   -4.6319   -1.1913   -2.1448 N   0  5
   -3.9491   -0.4854   -1.1471 N   0  0
   -2.9379    0.4052   -1.1895 C   0  0
   -2.4428    0.7335   -2.2551 O   0  0
   -6.5461   -2.8839   -2.2551 C   0  0
   -2.5533    1.1277    2.4977 C   0  0
    3.5436    2.6949    0.8807 H   0  0
    3.5265    2.7045   -0.9151 H   0  0
    4.4986    1.4793   -0.0329 H   0  0
    2.3919    0.4877   -0.9165 H   0  0
    2.4083    0.4775    0.8797 H   0  0
   -1.3925    2.5660    0.9210 H   0  0
   -1.4018    2.5763   -0.8753 H   0  0
   -6.1714   -2.2573    0.5387 H   0  0
   -7.5271   -2.5344   -1.9007 H   0  0
   -6.3713   -3.8507   -1.7605 H   0  0
   -6.4564   -2.9219   -3.3508 H   0  0
   -2.6443    2.2184    2.3880 H   0  0
   -1.4795    0.8911    2.5289 H   0  0
   -3.0928    0.7477    3.3778 H   0  0
  1  2  1  0
  2  3  1  0
  3  4  1  0
  4  5  2  0
  4  6  1  0
  6  7  1  0
  7 15  1  0
  7  8  2  0
  8  9  1  0
  8 18  1  0
  9 10  2  0
 10 14  1  0
 10 11  1  0
 11 12  2  0
 12 13  1  0
 12 17  1  0
 13 14  1  0
 14 15  1  0
 15 16  2  0
  1 19  1  0
  1 20  1  0
  1 21  1  0
  2 22  1  0
  2 23  1  0
  6 24  1  0
  6 25  1  0
 11 26  1  0
 17 27  1  0
 17 28  1  0
 17 29  1  0
 18 30  1  0
 18 31  1  0
 18 32  1  0
M  CHG  1  13  -1
M  END
> <Name>
ZINC05686397

> <reference>
BDB21642

> <quality>
0.758

> <status>
decoy

$$$$
ZINC22204103
  SciTegic06061311253D

 27 28  0  0  0  0            999 V2000
    3.6340   -2.1101   -0.0449 C   0  0
    3.6162   -0.6453   -0.0369 N   0  0
    4.8760    0.1026   -0.0454 C   0  0
    2.4001    0.0374   -0.0211 C   0  0
    1.2050   -0.6746   -0.0131 C   0  0
    0.0021   -0.0041    0.0020 C   0  0
   -0.0169    1.3941    0.0097 C   0  0
    1.1865    2.1061    0.0020 C   0  0
    2.3854    1.4284   -0.0130 C   0  0
   -1.2081    2.0627    0.0190 N   0  0
   -1.3819    3.0734    0.8235 C   0  0
   -2.6631    3.7925    0.8335 C   0  0
   -2.9977    4.8575    1.6155 N   0  5
   -4.2075    5.1831    1.3077 N   0  0
   -4.6408    4.3858    0.3959 N   0  0
   -3.7257    3.5327    0.0893 N   0  0
    4.2371   -2.3895    0.8316 H   0  0
    4.2196   -2.3800   -0.9361 H   0  0
    2.6374   -2.5756   -0.0375 H   0  0
    5.4113   -0.2569   -0.9366 H   0  0
    5.4288   -0.2664    0.8311 H   0  0
    4.7542    1.1958   -0.0384 H   0  0
    1.2208   -1.7745   -0.0188 H   0  0
   -0.9425   -0.5677    0.0080 H   0  0
    1.1757    3.2060    0.0079 H   0  0
    3.3325    1.9878   -0.0186 H   0  0
   -0.5694    3.3880    1.4949 H   0  0
  1  2  1  0
  2  3  1  0
  2  4  1  0
  4  9  2  0
  4  5  1  0
  5  6  2  0
  6  7  1  0
  7  8  2  0
  7 10  1  0
  8  9  1  0
 10 11  2  0
 11 12  1  0
 12 16  2  0
 12 13  1  0
 13 14  1  0
 14 15  2  0
 15 16  1  0
  1 17  1  0
  1 18  1  0
  1 19  1  0
  3 20  1  0
  3 21  1  0
  3 22  1  0
  5 23  1  0
  6 24  1  0
  8 25  1  0
  9 26  1  0
 11 27  1  0
M  CHG  1  13  -1
M  END
> <Name>
ZINC22204103

> <reference>
BDB21642

> <quality>
0.756

> <status>
decoy

$$$$
ZINC13207505
  SciTegic06061311253D

 29 30  0  0  0  0            999 V2000
   -0.6809    0.1794    5.8331 C   0  0
   -1.9947    0.2808    5.0556 C   0  0
   -2.1209    1.6233    4.4829 N   0  0
   -1.6205    1.8854    3.2178 C   0  0
   -1.7529    3.1663    2.6965 C   0  0
   -2.3918    4.1604    3.4685 C   0  0
   -2.5196    5.2908    3.0336 O   0  0
   -2.8589    3.8437    4.6941 N   0  0
   -2.7244    2.6000    5.1860 C   0  0
   -3.1584    2.3509    6.2943 O   0  0
   -3.5231    4.8707    5.5006 C   0  0
   -5.0238    4.8615    5.2029 C   0  0
   -1.1680    3.1369    1.4463 N   0  5
   -0.7223    1.8808    1.2496 C   0  0
   -0.9895    1.1480    2.3004 N   0  0
   -0.0169    1.3948    0.0097 C   0  0  2  0  0  0
    0.0021   -0.0041    0.0020 F   0  0
    1.2956    1.8790   -0.0002 F   0  0
   -0.6935    1.8582   -1.1237 F   0  0
   -0.6740    0.9246    6.6422 H   0  0
    0.1637    0.3685    5.1542 H   0  0
   -0.5855   -0.8284    6.2634 H   0  0
   -2.0006   -0.4644    4.2465 H   0  0
   -2.8393    0.0917    5.7345 H   0  0
   -3.3603    4.6610    6.5681 H   0  0
   -3.1071    5.8585    5.2534 H   0  0
   -5.4417    3.8746    5.4506 H   0  0
   -5.1882    5.0712    4.1357 H   0  0
   -5.5231    5.6324    5.8082 H   0  0
  1  2  1  0
  2  3  1  0
  3  9  1  0
  3  4  1  0
  4 15  1  0
  4  5  2  0
  5  6  1  0
  5 13  1  0
  6  7  2  0
  6  8  1  0
  8  9  1  0
  8 11  1  0
  9 10  2  0
 11 12  1  0
 13 14  1  0
 14 15  2  0
 14 16  1  0
 16 17  1  0
 16 18  1  0
 16 19  1  0
  1 20  1  0
  1 21  1  0
  1 22  1  0
  2 23  1  0
  2 24  1  0
 11 25  1  0
 11 26  1  0
 12 27  1  0
 12 28  1  0
 12 29  1  0
M  CHG  1  13  -1
M  END
> <Name>
ZINC13207505

> <reference>
BDB21642

> <quality>
0.754

> <status>
decoy

$$$$
ZINC06059690
  SciTegic06061311253D

 26 26  0  0  0  0            999 V2000
    2.4551    3.9939   -0.4103 C   0  0
    1.1596    3.2567   -0.1879 C   0  0
    1.1782    1.9250    0.0228 C   0  0
   -0.0424    1.2361    0.2315 C   0  0
   -0.0508    0.0283    0.4247 O   0  0
   -1.2458    1.9668    0.2066 C   0  0
   -1.2028    3.3114   -0.0060 C   0  0
   -0.0141    3.9417   -0.2023 N   0  0
    0.0017    5.3881   -0.4345 C   0  0
    0.0258    5.6627   -1.9395 C   0  0
    0.0412    7.0736   -2.1660 O   0  0
    0.0642    7.4403   -3.5470 C   0  0
   -2.3515    4.0241   -0.0273 O   0  0
    2.4801    4.7756    0.3632 H   0  0
    2.3390    4.4972   -1.3815 H   0  0
    3.3427    3.3449   -0.3785 H   0  0
    2.1326    1.3781    0.0326 H   0  0
   -2.2092    1.4577    0.3571 H   0  0
   -0.8993    5.8402    0.0058 H   0  0
    0.8968    5.8257    0.0317 H   0  0
    0.9268    5.2112   -2.3803 H   0  0
   -0.8692    5.2267   -2.4073 H   0  0
   -0.8253    7.0005   -4.0217 H   0  0
    0.9592    6.9851   -3.9961 H   0  0
    0.0754    8.5328   -3.6750 H   0  0
   -2.7848    3.8407    0.8438 H   0  0
  1  2  1  0
  2  8  1  0
  2  3  2  0
  3  4  1  0
  4  5  2  0
  4  6  1  0
  6  7  2  0
  7  8  1  0
  7 13  1  0
  8  9  1  0
  9 10  1  0
 10 11  1  0
 11 12  1  0
  1 14  1  0
  1 15  1  0
  1 16  1  0
  3 17  1  0
  6 18  1  0
  9 19  1  0
  9 20  1  0
 10 21  1  0
 10 22  1  0
 12 23  1  0
 12 24  1  0
 12 25  1  0
 13 26  1  0
M  END
> <Name>
ZINC06059690

> <reference>
BDB21642

> <quality>
0.754

> <status>
decoy

$$$$
ZINC05125158
  SciTegic06061311253D

 18 19  0  0  1  0            999 V2000
    5.4743    3.1503    0.2488 C   0  0
    4.6487    4.1754    0.1830 N   0  0
    3.4038    3.6767    0.0899 C   0  0
    2.2672    4.3848    0.0034 N   0  0
    1.1008    3.7654    0.0139 C   0  0
   -0.0772    4.5406    0.0346 C   0  0
   -1.2829    3.9524    0.0468 N   0  0
   -1.3353    2.4817    0.0317 C   0  0  1  0  0  0
   -0.0220    1.7322    0.0145 C   0  0
    1.0838    2.4032    0.0047 N   0  0
    0.0011   -0.0036    0.0015 Cl  0  0
   -2.2537    1.9536    1.4906 Cl  0  0
    0.0342    6.2730    0.0444 Cl  0  0
    3.5094    2.3429    0.0939 N   0  0
    4.7566    2.0347    0.1896 N   0  0
    6.5692    3.2088    0.3375 H   0  0
    0.1286    3.2508    0.0146 H   0  0
   -1.8053    2.2307   -0.9306 H   0  0
  1 15  1  0
  1  2  2  0
  2  3  1  0
  3  4  2  0
  3 14  1  0
  4  5  1  0
  5 10  1  0
  5  6  1  0
  6 13  1  0
  6  7  2  0
  7  8  1  0
  8  9  1  0
  8 12  1  0
  9 10  2  0
  9 11  1  0
 14 15  2  0
  1 16  1  0
  5 17  1  0
  8 18  1  0
M  END
> <Name>
ZINC05125158

> <reference>
BDB21642

> <quality>
0.752

> <status>
decoy

$$$$
ZINC05677486
  SciTegic06061311253D

 34 36  0  0  0  0            999 V2000
    3.2911   -4.1873    1.1300 C   0  0
    3.7193   -3.3138   -0.0509 C   0  0
    2.9323   -2.0287   -0.0365 C   0  0
    3.4633   -0.7858   -0.0348 N   0  0
    2.3860    0.1124   -0.0199 N   0  0
    1.2535   -0.6568   -0.0134 C   0  0
    1.6250   -1.9397   -0.0238 N   0  0
    0.0021   -0.0041    0.0020 C   0  0
   -1.2033   -0.7187    0.0101 C   0  0
   -2.3908   -0.0447    0.0255 C   0  0
   -2.4179    1.3572    0.0333 C   0  0
   -1.2461    2.0846    0.0309 C   0  0
   -0.0172    1.4163    0.0098 C   0  0
    1.1454    2.0896    0.0023 N   0  0
    2.3050    1.4513   -0.0124 C   0  0
    3.7518    2.3666   -0.0218 S   0  0
   -3.6106    2.0056    0.0482 O   0  0
   -3.5724    3.4340    0.0556 C   0  0
   -3.5596   -0.7406    0.0328 O   0  0
   -3.4658   -2.1665    0.0237 C   0  0
    2.2179   -4.4145    1.0492 H   0  0
    3.4820   -3.6518    2.0717 H   0  0
    3.8652   -5.1256    1.1201 H   0  0
    4.7925   -3.0868    0.0309 H   0  0
    3.5285   -3.8492   -0.9927 H   0  0
    4.4647   -0.5449   -0.0429 H   0  0
   -1.1930   -1.8186    0.0041 H   0  0
   -1.2776    3.1841    0.0455 H   0  0
   -3.0039    3.7328   -0.8374 H   0  0
   -2.9869    3.7232    0.9408 H   0  0
   -4.5750    3.8863    0.0676 H   0  0
   -2.8691   -2.4428    0.9055 H   0  0
   -2.8863   -2.4325   -0.8726 H   0  0
   -4.4500   -2.6578    0.0304 H   0  0
  1  2  1  0
  2  3  1  0
  3  7  2  0
  3  4  1  0
  4  5  1  0
  5 15  1  0
  5  6  1  0
  6  7  1  0
  6  8  2  0
  8 13  1  0
  8  9  1  0
  9 10  2  0
 10 11  1  0
 10 19  1  0
 11 12  2  0
 11 17  1  0
 12 13  1  0
 13 14  2  0
 14 15  1  0
 15 16  2  0
 17 18  1  0
 19 20  1  0
  1 21  1  0
  1 22  1  0
  1 23  1  0
  2 24  1  0
  2 25  1  0
  4 26  1  0
  9 27  1  0
 12 28  1  0
 18 29  1  0
 18 30  1  0
 18 31  1  0
 20 32  1  0
 20 33  1  0
 20 34  1  0
M  END
> <Name>
ZINC05677486

> <reference>
BDB21642

> <quality>
0.750

> <status>
decoy

$$$$
ZINC30572401
  SciTegic06061311253D

 22 24  0  0  0  0            999 V2000
    4.3331   -8.0714   -1.7524 C   0  0
    4.2682   -7.8817   -0.3674 C   0  0
    3.8213   -6.7486    0.1262 N   0  0
    3.4215   -5.7587   -0.6803 C   0  0
    2.9404   -4.5442   -0.4364 N   0  0
    2.6848   -3.9233   -1.5859 C   0  0
    2.9886   -4.7197   -2.5912 N   0  0
    3.4724   -5.9122   -2.0371 N   0  0
    3.9292   -7.0712   -2.5787 C   0  0
    2.0343   -2.2930   -1.7394 S   0  0
    1.8271   -1.7398   -0.0243 C   0  0
    1.2696   -0.3398   -0.0119 C   0  0
    0.0021   -0.0041    0.0020 N   0  0
   -0.0162    1.3407    0.0094 C   0  0
    1.2182    1.7467   -0.0002 N   0  0
    1.9725    0.7968   -0.0125 O   0  0
    4.7067   -9.0192   -2.1673 H   0  0
    4.5926   -8.6845    0.3111 H   0  0
    3.9715   -7.1982   -3.6705 H   0  0
    1.1329   -2.4150    0.4975 H   0  0
    2.8017   -1.7501    0.4857 H   0  0
   -0.9116    1.9796    0.0214 H   0  0
  1  9  2  0
  1  2  1  0
  2  3  2  0
  3  4  1  0
  4  8  1  0
  4  5  2  0
  5  6  1  0
  6  7  2  0
  6 10  1  0
  7  8  1  0
  8  9  1  0
 10 11  1  0
 11 12  1  0
 12 16  1  0
 12 13  2  0
 13 14  1  0
 14 15  2  0
 15 16  1  0
  1 17  1  0
  2 18  1  0
  9 19  1  0
 11 20  1  0
 11 21  1  0
 14 22  1  0
M  END
> <Name>
ZINC30572401

> <reference>
BDB21642

> <quality>
0.741

> <status>
decoy

$$$$
ZINC03194281
  SciTegic06061311253D

 40 42  0  0  1  0            999 V2000
    0.7721   -0.5054    1.2266 C   0  0
    0.0021   -0.0041    0.0020 C   0  0
   -0.0173    1.4259    0.0099 O   0  0
    1.2838    2.0194    0.0006 C   0  0
    2.0669    1.5386    1.2252 C   0  0
    2.9179   -0.4318    2.3479 C   0  0  1  0  0  0
    4.3519    0.0951    2.2410 C   0  0  1  0  0  0
    5.0866   -0.3048    3.4018 O   0  0
    4.5097    0.1501    4.6295 C   0  0
    3.0757   -0.3768    4.7364 C   0  0
    2.3410    0.0231    3.5756 O   0  0
    5.0608   -1.9268    1.1112 C   0  0
    5.6772   -2.4659   -0.1824 C   0  0
    6.9633   -1.8710   -0.3758 O   0  0
    6.9319   -0.4432   -0.4500 C   0  0
    6.3283    0.1165    0.8408 C   0  0
    2.1365    0.0627    1.1937 N   0  0
    4.9762   -0.4543    1.0180 N   0  0
    0.8301   -1.6036    1.2026 H   0  0
    0.2594   -0.1790    2.1434 H   0  0
   -1.0294   -0.3849    0.0343 H   0  0
    0.4973   -0.3591   -0.9138 H   0  0
    1.1893    3.1149    0.0331 H   0  0
    1.8165    1.7226   -0.9149 H   0  0
    3.0844    1.9558    1.1991 H   0  0
    1.5541    1.8633    2.1426 H   0  0
    2.9126   -1.5318    2.3392 H   0  0
    4.3527    1.1935    2.1812 H   0  0
    5.1028   -0.2261    5.4761 H   0  0
    4.4984    1.2499    4.6464 H   0  0
    2.5965    0.0388    5.6351 H   0  0
    3.0915   -1.4748    4.8006 H   0  0
    5.6939   -2.2056    1.9664 H   0  0
    4.0522   -2.3460    1.2415 H   0  0
    5.7855   -3.5582   -0.1103 H   0  0
    5.0259   -2.2156   -1.0328 H   0  0
    7.9553   -0.0591   -0.5728 H   0  0
    6.3165   -0.1323   -1.3071 H   0  0
    6.9613   -0.1640    1.6956 H   0  0
    6.2590    1.2121    0.7717 H   0  0
  1  2  1  0
  1 17  1  0
  2  3  1  0
  3  4  1  0
  4  5  1  0
  5 17  1  0
  6 11  1  0
  6  7  1  0
  6 17  1  0
  7  8  1  0
  7 18  1  0
  8  9  1  0
  9 10  1  0
 10 11  1  0
 12 13  1  0
 12 18  1  0
 13 14  1  0
 14 15  1  0
 15 16  1  0
 16 18  1  0
  1 19  1  0
  1 20  1  0
  2 21  1  0
  2 22  1  0
  4 23  1  0
  4 24  1  0
  5 25  1  0
  5 26  1  0
  6 27  1  0
  7 28  1  0
  9 29  1  0
  9 30  1  0
 10 31  1  0
 10 32  1  0
 12 33  1  0
 12 34  1  0
 13 35  1  0
 13 36  1  0
 15 37  1  0
 15 38  1  0
 16 39  1  0
 16 40  1  0
M  END
> <Name>
ZINC03194281

> <reference>
BDB21642

> <quality>
0.741

> <status>
decoy

$$$$
ZINC31772142
  SciTegic06061311253D

 17 18  0  0  0  0            999 V2000
   -0.0166    1.3749    0.0096 C   0  0
    0.0021   -0.0041    0.0020 C   0  0
    1.1423   -0.6740   -0.0124 N   0  3
    1.1248   -2.0899   -0.0194 O   0  5
    2.3043   -0.0293   -0.0201 C   0  0
    3.5929   -0.4194   -0.0344 N   0  0
    4.3507    0.6569   -0.0359 C   0  0
    3.5992    1.7506   -0.0228 N   0  0
    2.3219    1.3894   -0.0126 C   0  0
    1.1367    2.0713    0.0023 N   0  0
    1.1218    3.4872    0.0096 O   0  5
    5.8576    0.6483   -0.0502 C   0  0  1  0  0  0
    6.3341    0.2974    1.2175 F   0  0
    6.3097   -0.2820   -0.9923 F   0  0
    6.3280    1.9215   -0.3893 F   0  0
   -1.4987   -0.8766    0.0110 Cl  0  0
   -1.5342    2.2178    0.0213 Cl  0  0
  1 10  1  0
  1  2  2  0
  1 17  1  0
  2  3  1  0
  2 16  1  0
  3  4  1  0
  3  5  2  0
  5  9  1  0
  5  6  1  0
  6  7  2  0
  7  8  1  0
  7 12  1  0
  8  9  2  0
  9 10  1  0
 10 11  1  0
 12 13  1  0
 12 14  1  0
 12 15  1  0
M  CHG  3   3   1   4  -1  11  -1
M  END
> <Name>
ZINC31772142

> <reference>
BDB21642

> <quality>
0.736

> <status>
decoy

$$$$
ZINC22035808
  SciTegic06061311253D

 31 31  0  0  0  0            999 V2000
    0.7243   -1.9550    1.2419 C   0  0
    0.7463   -0.4877    1.1733 N   0  0
    0.0021   -0.0041    0.0020 C   0  0
   -0.0187    1.5263    0.0104 C   0  0
    1.3610    2.0324    0.0000 N   0  0
    2.1052    1.5487    1.1712 C   0  0
    2.1259    0.0184    1.1628 C   0  0
    1.3830    3.4996   -0.0686 C   0  0
    2.8086    4.0001    0.1724 C   0  0
    2.8357    5.8119    0.0877 S   0  0
    2.5136    6.2047   -1.2394 O   0  0
    2.0651    6.3239    1.1662 O   0  0
    4.5808    6.2013    0.3938 C   0  0  1  0  0  0
    5.3721    5.6024   -0.5923 F   0  0
    4.7623    7.5880    0.3589 F   0  0
    4.9539    5.7136    1.6508 F   0  0
    1.2401   -2.2757    2.1590 H   0  0
    1.2573   -2.3597    0.3689 H   0  0
   -0.3136   -2.3193    1.2490 H   0  0
   -1.0294   -0.3845    0.0385 H   0  0
    0.4924   -0.3588   -0.9166 H   0  0
   -0.5495    1.8911   -0.8813 H   0  0
   -0.5326    1.8824    0.9154 H   0  0
    3.1366    1.9293    1.1336 H   0  0
    1.6159    1.9032    2.0904 H   0  0
    2.6573   -0.3457    2.0545 H   0  0
    2.6410   -0.3358    0.2577 H   0  0
    1.0438    3.8255   -1.0630 H   0  0
    0.7148    3.9138    0.7008 H   0  0
    3.1484    3.6750    1.1668 H   0  0
    3.4782    3.5878   -0.5968 H   0  0
  1  2  1  0
  2  7  1  0
  2  3  1  0
  3  4  1  0
  4  5  1  0
  5  6  1  0
  5  8  1  0
  6  7  1  0
  8  9  1  0
  9 10  1  0
 10 11  2  0
 10 12  2  0
 10 13  1  0
 13 14  1  0
 13 15  1  0
 13 16  1  0
  1 17  1  0
  1 18  1  0
  1 19  1  0
  3 20  1  0
  3 21  1  0
  4 22  1  0
  4 23  1  0
  6 24  1  0
  6 25  1  0
  7 26  1  0
  7 27  1  0
  8 28  1  0
  8 29  1  0
  9 30  1  0
  9 31  1  0
M  END
> <Name>
ZINC22035808

> <reference>
BDB21642

> <quality>
0.727

> <status>
decoy

$$$$
ZINC03572947
  SciTegic06061311253D

 30 31  0  0  1  0            999 V2000
    1.4167    2.0553   -0.0004 C   0  0
   -0.0187    1.5258    0.0104 C   0  0
    0.0021   -0.0041    0.0020 C   0  0
    0.7421   -0.5109    1.2415 C   0  0  2  0  0  0
    2.1775    0.0187    1.2307 C   0  0
    2.1567    1.5485    1.2391 C   0  0
    0.7628   -2.0407    1.2331 C   0  0  1  0  0  0
    1.4911   -2.5709    2.4522 C   0  0
    2.6505   -2.3820    2.7522 O   0  0
    0.5816   -3.2953    3.1336 N   0  0
   -0.6077   -3.2965    2.5208 C   0  0
   -1.5854   -3.8812    2.9444 O   0  0
   -0.6004   -2.5784    1.3833 N   0  5
    0.8609   -3.9957    4.3897 C   0  0
    0.5869   -3.0978    5.5235 C   0  0
    0.3754   -2.4049    6.3985 N   0  0
    1.4013    3.1552    0.0058 H   0  0
    1.9306    1.7009   -0.9061 H   0  0
   -0.5516    1.8894   -0.8806 H   0  0
   -0.5335    1.8800    0.9156 H   0  0
   -1.0298   -0.3850    0.0104 H   0  0
    0.5170   -0.3600   -0.9026 H   0  0
    0.2273   -0.1561    2.1465 H   0  0
    2.7094   -0.3451    2.1221 H   0  0
    2.6933   -0.3353    0.3259 H   0  0
    3.1889    1.9287    1.2311 H   0  0
    1.6425    1.9025    2.1448 H   0  0
    1.2388   -2.3367    0.2866 H   0  0
    1.9170   -4.3025    4.4128 H   0  0
    0.2188   -4.8857    4.4640 H   0  0
  1  6  1  0
  1  2  1  0
  2  3  1  0
  3  4  1  0
  4  5  1  0
  4  7  1  0
  5  6  1  0
  7 13  1  0
  7  8  1  0
  8  9  2  0
  8 10  1  0
 10 11  1  0
 10 14  1  0
 11 12  2  0
 11 13  1  0
 14 15  1  0
 15 16  3  0
  1 17  1  0
  1 18  1  0
  2 19  1  0
  2 20  1  0
  3 21  1  0
  3 22  1  0
  4 23  1  0
  5 24  1  0
  5 25  1  0
  6 26  1  0
  6 27  1  0
  7 28  1  0
 14 29  1  0
 14 30  1  0
M  CHG  1  13  -1
M  END
> <Name>
ZINC03572947

> <reference>
BDB21642

> <quality>
0.727

> <status>
decoy

$$$$
ZINC24631788
  SciTegic06061311253D

 39 40  0  0  0  0            999 V2000
    8.4174   -2.3279    4.7797 C   0  0
    6.9577   -2.4922    4.7709 N   0  0
    6.3548   -1.9076    5.9762 C   0  0
    4.8633   -2.2566    6.0179 C   0  0
    4.2495   -1.8364    4.7491 N   0  3
    4.8766   -2.2760    3.4935 C   0  0
    6.3710   -1.9214    3.5511 C   0  0
    3.1261   -1.0647    4.7372 C   0  0
    2.5957   -0.7017    3.6012 N   0  0
    1.4704    0.0712    3.5893 C   0  0
    0.9281    0.4446    4.7434 N   0  0
   -0.1664    1.1964    4.7676 C   0  0
   -0.7408    1.5972    3.5658 C   0  0
   -0.1502    1.1831    2.3764 C   0  0
    0.9438    0.4317    2.4239 N   0  0
   -0.6816    1.5467    1.1837 O   0  0
   -0.0127    1.0858    0.0080 C   0  0
   -0.7138    1.5732    5.9489 O   0  0
   -0.0609    1.1256    7.1386 C   0  0
    8.6547   -1.2552    4.7253 H   0  0
    8.8374   -2.8346    3.8983 H   0  0
    8.8426   -2.7594    5.6978 H   0  0
    6.8514   -2.3144    6.8694 H   0  0
    6.4746   -0.8144    5.9546 H   0  0
    4.3825   -1.7264    6.8532 H   0  0
    4.7419   -3.3425    6.1444 H   0  0
    4.4075   -1.7587    2.6436 H   0  0
    4.7598   -3.3642    3.3827 H   0  0
    6.8802   -2.3359    2.6686 H   0  0
    6.4880   -0.8277    3.5641 H   0  0
    2.6665   -0.7478    5.6850 H   0  0
    3.0261   -0.9984    2.7137 H   0  0
   -1.6421    2.2277    3.5562 H   0  0
    0.0146   -0.0116    0.0777 H   0  0
    1.0216    1.4542    0.0759 H   0  0
   -0.5019    1.4208   -0.9185 H   0  0
    0.9742    1.4933    7.0805 H   0  0
   -0.0326    0.0274    7.0815 H   0  0
   -0.5626    1.4708    8.0546 H   0  0
  1  2  1  0
  2  7  1  0
  2  3  1  0
  3  4  1  0
  4  5  1  0
  5  6  1  0
  5  8  2  0
  6  7  1  0
  8  9  1  0
  9 10  1  0
 10 15  2  0
 10 11  1  0
 11 12  2  0
 12 13  1  0
 12 18  1  0
 13 14  2  0
 14 15  1  0
 14 16  1  0
 16 17  1  0
 18 19  1  0
  1 20  1  0
  1 21  1  0
  1 22  1  0
  3 23  1  0
  3 24  1  0
  4 25  1  0
  4 26  1  0
  6 27  1  0
  6 28  1  0
  7 29  1  0
  7 30  1  0
  8 31  1  0
  9 32  1  0
 13 33  1  0
 17 34  1  0
 17 35  1  0
 17 36  1  0
 19 37  1  0
 19 38  1  0
 19 39  1  0
M  CHG  1   5   1
M  END
> <Name>
ZINC24631788

> <reference>
BDB21642

> <quality>
0.726

> <status>
decoy

$$$$
ZINC00034093
  SciTegic06061311253D

 26 27  0  0  0  0            999 V2000
   -0.0314   -2.7045   -0.0131 C   0  0
    1.2314   -2.0357   -0.0211 O   0  0
    1.2100   -0.6759   -0.0131 C   0  0
    0.0021   -0.0041    0.0020 C   0  0
   -0.0169    1.3932    0.0097 C   0  0
    1.1857    2.1050    0.0020 C   0  0
    2.3875    1.4278   -0.0131 C   0  0
    2.4053    0.0393   -0.0207 C   0  0
    3.5919   -0.6235   -0.0351 O   0  0
    3.8807    2.3132   -0.0226 Cl  0  0
   -1.3021    2.1145    0.0197 C   0  0
   -1.3179    3.4124    0.0269 N   0  0
   -2.5397    4.0980    0.0364 N   0  0
   -3.6347    3.8379   -0.7329 C   0  0
   -4.5524    4.7076   -0.4052 N   0  0
   -4.1032    5.4953    0.5059 N   0  0
   -2.8770    5.1667    0.8126 C   0  0
   -0.5793   -2.3412   -0.8951 H   0  0
   -0.5626   -2.3514    0.8831 H   0  0
    0.0673   -3.8000   -0.0203 H   0  0
   -0.9422   -0.5682    0.0079 H   0  0
    1.1740    3.2049    0.0080 H   0  0
    3.5489   -1.2069   -0.8338 H   0  0
   -2.2480    1.5529    0.0211 H   0  0
   -3.7279    3.0439   -1.4885 H   0  0
   -2.2361    5.6601    1.5581 H   0  0
  1  2  1  0
  2  3  1  0
  3  8  2  0
  3  4  1  0
  4  5  2  0
  5  6  1  0
  5 11  1  0
  6  7  2  0
  7  8  1  0
  7 10  1  0
  8  9  1  0
 11 12  2  0
 12 13  1  0
 13 17  1  0
 13 14  1  0
 14 15  2  0
 15 16  1  0
 16 17  2  0
  1 18  1  0
  1 19  1  0
  1 20  1  0
  4 21  1  0
  6 22  1  0
  9 23  1  0
 11 24  1  0
 14 25  1  0
 17 26  1  0
M  END
> <Name>
ZINC00034093

> <reference>
BDB21642

> <quality>
0.722

> <status>
decoy

$$$$
ZINC05855057
  SciTegic06061311253D

 28 28  0  0  1  0            999 V2000
    1.9654   -0.1603    1.7146 C   0  0
    2.3579    0.9922    0.8265 C   0  0
    3.5034    1.3971    0.8274 O   0  0
    1.3991    1.5985   -0.0027 C   0  0
    1.7654    2.6289   -0.7926 C   0  0
    0.8498    3.2287   -1.6173 N   0  0
   -0.3417    2.5770   -1.9237 C   0  0
   -0.7715    1.5753   -1.1914 C   0  0
   -0.0127    1.0858    0.0080 C   0  5
   -0.6876    1.5534    1.2298 C   0  0
   -1.2085    1.9142    2.1726 N   0  0
    1.1026    4.4489   -2.1311 C   0  0
    2.1421    5.0172   -1.8631 O   0  0
    0.2030    5.0376   -2.9411 O   0  0
    0.5417    6.3516   -3.4577 C   0  0
   -0.5756    6.8485   -4.3384 C   0  0
   -1.0026    8.0815   -4.2218 C   0  0
    2.2306    0.1524    2.7353 H   0  0
    2.6345   -0.9874    1.4348 H   0  0
    0.9039   -0.4347    1.6254 H   0  0
    2.8044    2.9896   -0.7747 H   0  0
   -0.9317    2.9060   -2.7919 H   0  0
   -1.7151    1.0804   -1.4648 H   0  0
    1.4697    6.2880   -4.0448 H   0  0
    0.6852    7.0494   -2.6196 H   0  0
   -1.0326    6.1759   -5.0792 H   0  0
   -0.5456    8.7541   -3.4810 H   0  0
   -1.8182    8.4442   -4.8647 H   0  0
  1  2  1  0
  2  3  2  0
  2  4  1  0
  4  9  1  0
  4  5  2  0
  5  6  1  0
  6  7  1  0
  6 12  1  0
  7  8  2  0
  8  9  1  0
  9 10  1  0
 10 11  3  0
 12 13  2  0
 12 14  1  0
 14 15  1  0
 15 16  1  0
 16 17  2  0
  1 18  1  0
  1 19  1  0
  1 20  1  0
  5 21  1  0
  7 22  1  0
  8 23  1  0
 15 24  1  0
 15 25  1  0
 16 26  1  0
 17 27  1  0
 17 28  1  0
M  CHG  1   9  -1
M  END
> <Name>
ZINC05855057

> <reference>
BDB21642

> <quality>
0.721

> <status>
decoy

$$$$
ZINC00550450
  SciTegic06061311253D

 30 31  0  0  0  0            999 V2000
   -2.6452    9.3693    0.0748 C   0  0
   -2.5826    7.8636    0.0661 C   0  0
   -3.7451    7.1156    0.0732 C   0  0
   -3.6409    5.7256    0.0653 C   0  0
   -2.4353    5.1696    0.0458 N   0  0
   -1.3461    5.9204    0.0448 C   0  0
   -1.4132    7.2419    0.0521 N   0  0
   -0.1312    5.3211    0.0305 O   0  0
   -0.0899    3.9634    0.0232 C   0  0
    1.1525    3.3027    0.0083 C   0  0
    1.1936    1.9432    0.0011 C   0  0
   -0.0145    1.2167    0.0087 C   0  0
    0.0021   -0.0041    0.0020 O   0  0
   -1.1883    1.8798    0.0179 N   0  0
   -1.2065    3.2793    0.0307 N   0  0
   -2.4488    1.1332    0.0197 C   0  0
   -4.7541    4.9529    0.0714 O   0  0
   -4.5611    3.5370    0.0625 C   0  0
   -2.0791    9.6836   -0.8145 H   0  0
   -2.0630    9.6741    0.9570 H   0  0
   -3.6692    9.7710    0.0863 H   0  0
   -4.7297    7.6060    0.0848 H   0  0
    2.0867    3.8834    0.0025 H   0  0
    2.1591    1.4163   -0.0105 H   0  0
   -2.3936    0.4781    0.9016 H   0  0
   -2.4019    0.4879   -0.8699 H   0  0
   -3.3443    1.7720    0.0275 H   0  0
   -3.9477    3.3028    0.9450 H   0  0
   -3.9637    3.3118   -0.8332 H   0  0
   -5.5088    2.9786    0.0682 H   0  0
  1  2  1  0
  2  7  2  0
  2  3  1  0
  3  4  2  0
  4  5  1  0
  4 17  1  0
  5  6  2  0
  6  7  1  0
  6  8  1  0
  8  9  1  0
  9 15  2  0
  9 10  1  0
 10 11  2  0
 11 12  1  0
 12 13  2  0
 12 14  1  0
 14 15  1  0
 14 16  1  0
 17 18  1  0
  1 19  1  0
  1 20  1  0
  1 21  1  0
  3 22  1  0
 10 23  1  0
 11 24  1  0
 16 25  1  0
 16 26  1  0
 16 27  1  0
 18 28  1  0
 18 29  1  0
 18 30  1  0
M  END
> <Name>
ZINC00550450

> <reference>
BDB21642

> <quality>
0.717

> <status>
decoy

$$$$
ZINC05081727
  SciTegic06061311253D

 28 27  0  0  0  0            999 V2000
    0.6114   -2.0822   -1.4488 C   0  0
    0.6316   -0.5916   -1.2282 C   0  0
    1.1569    0.1782   -2.1058 N   0  0
    1.0576    1.5688   -1.9673 N   0  0
    1.6311    2.5629   -3.1611 S   0  0
    1.2852    3.8746   -2.7380 O   0  0
    2.9926    2.1889   -3.3215 O   0  0
    0.6810    2.1124   -4.6393 C   0  0
    0.0334   -0.0072    0.0254 C   0  0  2  0  0  0
   -1.1595    0.8773   -0.3430 C   0  0
    1.0871    0.8333    0.7495 C   0  0
   -0.4347   -1.1388    0.9426 C   0  0
    1.6635   -2.3685   -1.5941 H   0  0
    0.0943   -2.2266   -2.4089 H   0  0
    0.1353   -2.6401   -0.6290 H   0  0
    0.6279    1.9729   -1.1229 H   0  0
   -0.3943    2.2992   -4.5023 H   0  0
    0.8549    1.0657   -4.9293 H   0  0
    1.0266    2.7490   -5.4672 H   0  0
   -1.9178    0.2739   -0.8634 H   0  0
   -0.8239    1.6914   -1.0022 H   0  0
   -1.5966    1.3042    0.5717 H   0  0
    1.4242    1.6474    0.0910 H   0  0
    1.9451    0.1982    1.0151 H   0  0
    0.6511    1.2602    1.6647 H   0  0
    0.4223   -1.7751    1.2083 H   0  0
   -1.1925   -1.7436    0.4230 H   0  0
   -0.8715   -0.7129    1.8579 H   0  0
  1  2  1  0
  2  3  2  0
  2  9  1  0
  3  4  1  0
  4  5  1  0
  5  6  2  0
  5  7  2  0
  5  8  1  0
  9 10  1  0
  9 11  1  0
  9 12  1  0
  1 13  1  0
  1 14  1  0
  1 15  1  0
  4 16  1  0
  8 17  1  0
  8 18  1  0
  8 19  1  0
 10 20  1  0
 10 21  1  0
 10 22  1  0
 11 23  1  0
 11 24  1  0
 11 25  1  0
 12 26  1  0
 12 27  1  0
 12 28  1  0
M  END
> <Name>
ZINC05081727

> <reference>
BDB21642

> <quality>
0.716

> <status>
decoy

$$$$
ZINC02535140
  SciTegic06061311253D

 21 22  0  0  0  0            999 V2000
   -3.8012    1.0818   -2.2919 C   0  0
   -2.7340    1.3149   -3.1654 C   0  0
   -1.7050    1.7061   -2.4583 N   0  0
   -2.0827    1.7253   -1.1095 N   0  0
   -3.3743    1.3415   -1.0344 C   0  0
   -1.2284    2.1018    0.0195 C   0  0
   -0.0153    1.2805    0.0091 N   0  0
    1.2452    1.7649   -0.0004 C   0  0
    2.0833    0.7022   -0.0141 C   0  0
    1.2466   -0.4395   -0.0122 C   0  0
    0.0021   -0.0041    0.0020 N   0  0
    1.6839   -1.8490   -0.0244 C   0  0
    2.8687   -2.1173   -0.0375 O   0  0
    0.7692   -2.8382   -0.0209 O   0  5
   -4.8094    0.7466   -2.5768 H   0  0
   -2.7560    1.1908   -4.2582 H   0  0
   -3.9728    1.2552   -0.1155 H   0  0
   -0.9527    3.1632   -0.0671 H   0  0
   -1.7719    1.9398    0.9620 H   0  0
    1.5366    2.8256    0.0025 H   0  0
    3.1831    0.7217   -0.0245 H   0  0
  1  5  2  0
  1  2  1  0
  2  3  2  0
  3  4  1  0
  4  5  1  0
  4  6  1  0
  6  7  1  0
  7 11  1  0
  7  8  1  0
  8  9  2  0
  9 10  1  0
 10 11  2  0
 10 12  1  0
 12 13  2  0
 12 14  1  0
  1 15  1  0
  2 16  1  0
  5 17  1  0
  6 18  1  0
  6 19  1  0
  8 20  1  0
  9 21  1  0
M  CHG  1  14  -1
M  END
> <Name>
ZINC02535140

> <reference>
BDB21642

> <quality>
0.712

> <status>
decoy

$$$$
ZINC10970918
  SciTegic06061311253D

 34 35  0  0  1  0            999 V2000
   -7.3350   -3.2122    2.6677 C   0  0
   -6.5979   -2.9918    1.3452 C   0  0  2  0  0  0
   -7.4361   -2.0885    0.4384 C   0  0
   -6.3733   -4.3392    0.6559 C   0  0
   -5.2674   -2.3375    1.6147 C   0  0
   -4.9409   -2.0734    2.7524 O   0  0
   -4.4403   -2.0458    0.5913 N   0  0
   -3.2155   -1.4434    0.8394 C   0  0
   -2.7400   -1.1050    2.0119 N   0  0
   -1.5767   -0.5761    1.8629 N   0  0
   -1.2707   -0.5477    0.5983 C   0  0
   -2.2956   -1.0978   -0.0800 O   0  0
    0.0021   -0.0041    0.0020 C   0  0  1  0  0  0
   -0.0189    1.5452    0.0105 C   0  0
    1.5017    1.8607   -0.0023 C   0  0
    2.0842    0.7001    0.8325 C   0  0
    1.1303   -0.3683    0.8131 O   0  0
   -8.3063   -3.6901    2.4721 H   0  0
   -7.4968   -2.2441    3.1642 H   0  0
   -6.7328   -3.8616    3.3201 H   0  0
   -7.5980   -1.1194    0.9330 H   0  0
   -8.4075   -2.5654    0.2409 H   0  0
   -6.9067   -1.9297   -0.5126 H   0  0
   -7.3439   -4.8176    0.4585 H   0  0
   -5.7704   -4.9893    1.3069 H   0  0
   -5.8434   -4.1815   -0.2951 H   0  0
   -4.7176   -2.2701   -0.3750 H   0  0
    0.0788   -0.4110   -1.0171 H   0  0
   -0.4982    1.9285   -0.9024 H   0  0
   -0.4807    1.9196    0.9360 H   0  0
    1.6974    2.8231    0.4932 H   0  0
    1.8908    1.8244   -1.0305 H   0  0
    2.2480    1.0328    1.8681 H   0  0
    3.0308    0.3611    0.3863 H   0  0
  1  2  1  0
  2  3  1  0
  2  4  1  0
  2  5  1  0
  5  6  2  0
  5  7  1  0
  7  8  1  0
  8 12  1  0
  8  9  2  0
  9 10  1  0
 10 11  2  0
 11 12  1  0
 11 13  1  0
 13 17  1  0
 13 14  1  0
 14 15  1  0
 15 16  1  0
 16 17  1  0
  1 18  1  0
  1 19  1  0
  1 20  1  0
  3 21  1  0
  3 22  1  0
  3 23  1  0
  4 24  1  0
  4 25  1  0
  4 26  1  0
  7 27  1  0
 13 28  1  0
 14 29  1  0
 14 30  1  0
 15 31  1  0
 15 32  1  0
 16 33  1  0
 16 34  1  0
M  END
> <Name>
ZINC10970918

> <reference>
BDB21642

> <quality>
0.711

> <status>
decoy

$$$$
ZINC04593407
  SciTegic06061311253D

 22 22  0  0  0  0            999 V2000
   -1.5120   -0.5388   -3.6261 C   0  0
   -1.9762   -1.7881   -3.8448 C   0  0
   -1.5503   -2.8395   -2.9967 C   0  0
   -1.9547   -3.9744   -3.1742 O   0  0
   -0.6925   -2.5723   -1.9913 N   0  0
   -0.2415   -1.3188   -1.7991 C   0  0
    0.5357   -1.0941   -0.8913 O   0  0
   -0.6420   -0.3100   -2.5940 N   0  0
   -0.1378    1.0449   -2.3568 C   0  0
   -0.7879    1.6015   -1.2124 O   0  0
   -2.1224    2.0477   -1.4618 C   0  0
   -2.6712    2.7384   -0.2117 C   0  0
   -1.7206    4.2354    0.1140 Cl  0  0
   -3.1790   -2.1288   -5.2636 Br  0  0
   -1.8313    0.2908   -4.2740 H   0  0
   -0.3810   -3.3306   -1.3677 H   0  0
    0.9471    1.0067   -2.1791 H   0  0
   -0.3435    1.6730   -3.2361 H   0  0
   -2.7578    1.1854   -1.7121 H   0  0
   -2.1207    2.7581   -2.3017 H   0  0
   -2.5901    2.0589    0.6495 H   0  0
   -3.7268    3.0028   -0.3722 H   0  0
  1  8  1  0
  1  2  2  0
  2  3  1  0
  2 14  1  0
  3  4  2  0
  3  5  1  0
  5  6  1  0
  6  7  2  0
  6  8  1  0
  8  9  1  0
  9 10  1  0
 10 11  1  0
 11 12  1  0
 12 13  1  0
  1 15  1  0
  5 16  1  0
  9 17  1  0
  9 18  1  0
 11 19  1  0
 11 20  1  0
 12 21  1  0
 12 22  1  0
M  END
> <Name>
ZINC04593407

> <reference>
BDB21642

> <quality>
0.710

> <status>
decoy

$$$$
ZINC05964611
  SciTegic06061311253D

 23 24  0  0  1  0            999 V2000
   -2.6596    2.5078    4.9780 C   0  0
   -1.8906    2.2106    3.7165 C   0  0
   -1.8491    1.0168    3.1877 N   0  0
   -1.2040    0.7235    2.1240 N   0  0
   -0.7181    1.5718    1.2479 C   0  0
   -0.8686    2.9435    1.5010 C   0  0
   -0.8981    4.1347    0.8916 C   0  0
   -1.6077    5.0979    1.7315 C   0  0
   -1.8097    4.5943    2.9605 C   0  0
   -1.1157    3.2694    2.9760 C   0  0  1  0  0  0
   -2.0425    6.4419    1.2895 N   0  0
   -2.6290    7.1773    2.0633 O   0  0
   -1.8138    6.8125    0.1521 O   0  0
   -0.0127    1.0858    0.0080 C   0  0
   -3.3335    3.3268    4.6861 H   0  0
   -1.9058    2.9523    5.6446 H   0  0
   -3.1844    1.6504    5.4246 H   0  0
   -0.4559    4.3552   -0.0912 H   0  0
   -2.3697    5.0600    3.7849 H   0  0
   -0.1690    3.3041    3.5352 H   0  0
   -0.7406    0.4294   -0.4913 H   0  0
    0.8010    0.4456    0.3794 H   0  0
    0.3484    1.8930   -0.6463 H   0  0
  1  2  1  0
  2 10  1  0
  2  3  2  0
  3  4  1  0
  4  5  2  0
  5  6  1  0
  5 14  1  0
  6 10  1  0
  6  7  2  0
  7  8  1  0
  8  9  2  0
  8 11  1  0
  9 10  1  0
 11 12  2  0
 11 13  2  0
  1 15  1  0
  1 16  1  0
  1 17  1  0
  7 18  1  0
  9 19  1  0
 10 20  1  0
 14 21  1  0
 14 22  1  0
 14 23  1  0
M  END
> <Name>
ZINC05964611

> <reference>
BDB21642

> <quality>
0.710

> <status>
decoy

$$$$
ZINC11704229
  SciTegic06061311253D

 33 35  0  0  0  0            999 V2000
    7.2876   -6.9250   -1.2854 C   0  0
    6.6096   -6.4308   -0.0335 C   0  0
    6.7792   -7.1018    1.1278 C   0  0
    6.1537   -6.6519    2.2991 C   0  0
    5.3745   -5.5346    2.2584 C   0  0
    5.2102   -4.8498    1.0404 C   0  0
    5.8327   -5.3135   -0.0849 N   0  0
    5.6779   -4.6604   -1.2565 C   0  0
    6.2284   -5.0640   -2.2688 O   0  0
    4.8762   -3.5136   -1.2923 C   0  0
    4.2686   -3.0865   -0.1277 C   0  0
    4.4525   -3.7553    0.9998 N   0  0
    3.4009   -1.8544   -0.1393 C   0  0
    1.6597   -2.3421   -0.0575 S   0  0
    0.8957   -0.7546   -0.0856 C   0  0
   -0.4447   -0.4978   -0.0450 N   0  0
   -0.5625    0.8639   -0.0890 C   0  0
    0.6425    1.3557   -0.1511 N   0  0
    1.5076    0.4052   -0.1494 N   0  0
   -1.8482    1.6500   -0.0749 C   0  0
    7.8914   -6.0774   -1.6416 H   0  0
    6.4767   -7.0782   -2.0127 H   0  0
    7.8895   -7.8328   -1.1319 H   0  0
    7.4095   -8.0029    1.1538 H   0  0
    6.2910   -7.1971    3.2446 H   0  0
    4.8781   -5.1712    3.1703 H   0  0
    4.7324   -2.9614   -2.2327 H   0  0
    3.6459   -1.2249    0.7289 H   0  0
    3.5790   -1.2878   -1.0651 H   0  0
   -1.2086   -1.1867    0.0078 H   0  0
   -2.3447    1.2756    0.8325 H   0  0
   -2.4015    1.2140   -0.9198 H   0  0
   -1.7551    2.7453   -0.1164 H   0  0
  1  2  1  0
  2  7  1  0
  2  3  2  0
  3  4  1  0
  4  5  2  0
  5  6  1  0
  6 12  2  0
  6  7  1  0
  7  8  1  0
  8  9  2  0
  8 10  1  0
 10 11  2  0
 11 12  1  0
 11 13  1  0
 13 14  1  0
 14 15  1  0
 15 19  2  0
 15 16  1  0
 16 17  1  0
 17 18  2  0
 17 20  1  0
 18 19  1  0
  1 21  1  0
  1 22  1  0
  1 23  1  0
  3 24  1  0
  4 25  1  0
  5 26  1  0
 10 27  1  0
 13 28  1  0
 13 29  1  0
 16 30  1  0
 20 31  1  0
 20 32  1  0
 20 33  1  0
M  END
> <Name>
ZINC11704229

> <reference>
BDB21642

> <quality>
0.709

> <status>
decoy

$$$$
ZINC04663630
  SciTegic06061311253D

 32 33  0  0  1  0            999 V2000
    7.5465   -4.6535    0.5307 C   0  0
    6.0412   -4.9261    0.5052 C   0  0
    5.3233   -3.6686    0.3972 O   0  0
    3.9771   -3.7334    0.3620 C   0  0
    3.4185   -4.8118    0.4201 O   0  0
    3.1857   -2.5022    0.2536 C   0  5
    1.8100   -2.4113    0.2069 C   0  0
    1.4135   -1.1341    0.1065 N   0  0
    2.5091   -0.2777    0.0801 C   0  0
    2.4794    1.0773   -0.0153 C   0  0
    1.2098    1.7673   -0.2808 C   0  0
    0.1557    1.1012   -0.9263 C   0  0
   -1.0174    1.7969   -1.1521 C   0  0
   -1.1150    3.1145   -0.7391 C   0  0
   -0.1107    3.7153   -0.1295 N   0  0
    1.0293    3.1005    0.1048 C   0  0
    3.7084   -1.1283    0.1745 C   0  0
    4.8750   -0.7732    0.1851 O   0  0
    0.8754   -3.5922    0.2614 C   0  0
    7.7904   -4.0175    1.3944 H   0  0
    7.8431   -4.1412   -0.3964 H   0  0
    8.0910   -5.6058    0.6125 H   0  0
    5.7982   -5.5618   -0.3590 H   0  0
    5.7445   -5.4384    1.4323 H   0  0
    3.4059    1.6577    0.1062 H   0  0
    0.2606    0.0533   -1.2440 H   0  0
   -1.8649    1.3082   -1.6550 H   0  0
   -2.0463    3.6705   -0.9223 H   0  0
    1.8464    3.6387    0.6075 H   0  0
    1.1733   -4.1053    1.1877 H   0  0
    1.2248   -4.2270   -0.5662 H   0  0
   -0.1978   -3.3555    0.2135 H   0  0
  1  2  1  0
  2  3  1  0
  3  4  1  0
  4  5  2  0
  4  6  1  0
  6 17  1  0
  6  7  1  0
  7 19  1  0
  7  8  2  0
  8  9  1  0
  9 17  1  0
  9 10  2  0
 10 11  1  0
 11 16  2  0
 11 12  1  0
 12 13  2  0
 13 14  1  0
 14 15  2  0
 15 16  1  0
 17 18  2  0
  1 20  1  0
  1 21  1  0
  1 22  1  0
  2 23  1  0
  2 24  1  0
 10 25  1  0
 12 26  1  0
 13 27  1  0
 14 28  1  0
 16 29  1  0
 19 30  1  0
 19 31  1  0
 19 32  1  0
M  CHG  1   6  -1
M  END
> <Name>
ZINC04663630

> <reference>
BDB21642

> <quality>
0.704

> <status>
decoy

$$$$
ZINC00127733
  SciTegic06061311253D

 25 25  0  0  0  0            999 V2000
    2.4804    3.8027    0.0329 C   0  0
    1.1764    3.0473    0.0236 C   0  0
    1.1856    1.6922    0.0171 C   0  0
    0.0422    0.9675    0.0090 N   0  0
   -1.1645    1.5667    0.0011 C   0  0
   -2.1838    0.8988   -0.0116 O   0  0
   -1.2379    3.0310    0.0124 C   0  0
   -0.0374    3.7543    0.0211 C   0  0
   -0.0484    5.2377    0.0282 C   0  0
   -1.0994    5.8364    0.1299 O   0  0
    1.1075    5.9201   -0.0782 O   0  0
    1.0211    7.3695   -0.0642 C   0  0
   -2.5020    3.7039    0.0092 C   0  0
   -3.5047    4.2378    0.0066 N   0  0
    2.5084    0.9703    0.0195 C   0  0
    2.4311    4.4500    0.9209 H   0  0
    2.4393    4.4577   -0.8498 H   0  0
    3.3692    3.1547    0.0342 H   0  0
    0.0957   -0.0611    0.0089 H   0  0
    0.5214    7.6411    0.8774 H   0  0
    0.3542    7.6482   -0.8934 H   0  0
    2.0047    7.8535   -0.1551 H   0  0
    3.0409    1.3340    0.9106 H   0  0
    3.0488    1.3426   -0.8633 H   0  0
    2.4074   -0.1250    0.0138 H   0  0
  1  2  1  0
  2  8  1  0
  2  3  2  0
  3  4  1  0
  3 15  1  0
  4  5  1  0
  5  6  2  0
  5  7  1  0
  7  8  2  0
  7 13  1  0
  8  9  1  0
  9 10  2  0
  9 11  1  0
 11 12  1  0
 13 14  3  0
  1 16  1  0
  1 17  1  0
  1 18  1  0
  4 19  1  0
 12 20  1  0
 12 21  1  0
 12 22  1  0
 15 23  1  0
 15 24  1  0
 15 25  1  0
M  END
> <Name>
ZINC00127733

> <reference>
BDB21642

> <quality>
0.702

> <status>
decoy

$$$$
ZINC23699195
  SciTegic06061311253D

 61 63  0  0  1  0            999 V2000
    0.8215    7.4544   -3.4479 C   0  0
   -0.5799    7.1027   -3.9513 C   0  0  1  0  0  0
   -1.5858    7.7651   -3.1051 C   0  0
   -2.3621    8.2763   -2.4520 N   0  0
   -0.7367    7.5783   -5.3970 C   0  0  2  0  0  0
    0.4867    8.2013   -6.0724 C   0  0
   -0.6894    9.0858   -5.6539 C   0  0
   -0.7705    5.6514   -3.8912 N   0  0
   -0.6776    5.0079   -2.7107 C   0  0
   -0.4362    5.6302   -1.6981 O   0  0
   -0.8736    3.5149   -2.6489 C   0  0
   -0.7231    3.0583   -1.2608 N   0  0
   -1.7978    3.5507   -0.4355 C   0  0
   -1.3275    3.9383    0.9822 C   0  0
   -0.3170    2.9182    1.5476 C   0  0
   -0.6816    1.5549    1.2487 N   0  0
    0.0056    1.1089    0.0150 C   0  0
   -0.6707    1.5801   -1.1911 C   0  0
   -0.3673    0.6676    2.3764 C   0  0
    1.1055    0.7498    2.6851 C   0  0
    1.8069    1.5392    2.0886 O   0  0
    1.6431   -0.0538    3.6240 N   0  0
    3.0748    0.0261    3.9240 C   0  0  1  0  0  0
    3.8790   -0.2909    2.6616 C   0  0
    3.4040    1.3840    4.3873 C   0  0
    3.6580    2.4319    4.7449 N   0  0
    3.4238   -0.9847    5.0182 C   0  0  2  0  0  0
    3.9337   -0.4345    6.3517 C   0  0
    4.8990   -1.1377    5.3942 C   0  0
    0.9353    7.1127   -2.4085 H   0  0
    0.9657    8.5440   -3.4929 H   0  0
    1.5737    6.9597   -4.0799 H   0  0
   -1.4361    6.7674   -5.6486 H   0  0
    0.4863    8.0177   -7.1570 H   0  0
    1.3299    8.2946   -5.3721 H   0  0
   -0.4648    9.6453   -4.7338 H   0  0
   -1.3092    9.3671   -6.5180 H   0  0
   -0.9755    5.1228   -4.7511 H   0  0
   -1.8813    3.2620   -3.0103 H   0  0
   -0.1222    3.0189   -3.2808 H   0  0
   -2.2446    4.4320   -0.9188 H   0  0
   -2.5734    2.7747   -0.3564 H   0  0
   -0.8557    4.9314    0.9472 H   0  0
   -2.1991    3.9905    1.6512 H   0  0
   -0.2544    3.0396    2.6391 H   0  0
    0.6768    3.1232    1.1230 H   0  0
    0.0424    0.0096   -0.0005 H   0  0
    1.0376    1.4897    0.0200 H   0  0
   -0.1386    1.1959   -2.0739 H   0  0
   -1.6963    1.1826   -1.2059 H   0  0
   -0.6288   -0.3680    2.1135 H   0  0
   -0.9444    0.9786    3.2597 H   0  0
    1.0474   -0.7241    4.1306 H   0  0
    3.6290    0.4355    1.8743 H   0  0
    3.6339   -1.3056    2.3146 H   0  0
    4.9542   -0.2311    2.8862 H   0  0
    2.6220   -1.6748    4.7167 H   0  0
    3.6532   -1.0872    7.1915 H   0  0
    4.0564    0.6581    6.3165 H   0  0
    5.5299   -0.4149    4.8561 H   0  0
    5.1254   -2.1604    5.7301 H   0  0
  1  2  1  0
  2  3  1  0
  2  5  1  0
  2  8  1  0
  3  4  3  0
  5  7  1  0
  5  6  1  0
  6  7  1  0
  8  9  1  0
  9 10  2  0
  9 11  1  0
 11 12  1  0
 12 18  1  0
 12 13  1  0
 13 14  1  0
 14 15  1  0
 15 16  1  0
 16 17  1  0
 16 19  1  0
 17 18  1  0
 19 20  1  0
 20 21  2  0
 20 22  1  0
 22 23  1  0
 23 24  1  0
 23 25  1  0
 23 27  1  0
 25 26  3  0
 27 29  1  0
 27 28  1  0
 28 29  1  0
  1 30  1  0
  1 31  1  0
  1 32  1  0
  5 33  1  0
  6 34  1  0
  6 35  1  0
  7 36  1  0
  7 37  1  0
  8 38  1  0
 11 39  1  0
 11 40  1  0
 13 41  1  0
 13 42  1  0
 14 43  1  0
 14 44  1  0
 15 45  1  0
 15 46  1  0
 17 47  1  0
 17 48  1  0
 18 49  1  0
 18 50  1  0
 19 51  1  0
 19 52  1  0
 22 53  1  0
 24 54  1  0
 24 55  1  0
 24 56  1  0
 27 57  1  0
 28 58  1  0
 28 59  1  0
 29 60  1  0
 29 61  1  0
M  END
> <Name>
ZINC23699195

> <reference>
BDB50084632

> <quality>
0.894

> <status>
decoy

$$$$
ZINC28004824
  SciTegic06061311253D

 45 47  0  0  0  0            999 V2000
    2.4257    4.1084    0.0005 C   0  0
    1.1601    3.4449    0.0090 O   0  0
    1.1759    2.0860    0.0020 C   0  0
   -0.0167    1.3772    0.0096 C   0  0
    0.0021   -0.0041    0.0020 C   0  0
    1.2080   -0.6802   -0.0131 C   0  0
    2.3980    0.0239   -0.0207 C   0  0
    2.3846    1.4052   -0.0127 C   0  0
    1.2285   -2.4421   -0.0222 S   0  0
    2.4838   -2.8364    0.5145 O   0  0
   -0.0066   -2.8655    0.5386 O   0  0
    1.2188   -2.9237   -1.6066 N   0  0
    2.3567   -2.6103   -2.4744 C   0  0
    2.2811   -3.4631   -3.7425 C   0  0
    3.4190   -3.1497   -4.6103 N   0  0
    3.5607   -3.7839   -5.7911 C   0  0
    2.7443   -4.6159   -6.1360 O   0  0
    4.7085   -3.4678   -6.6665 C   0  0
    5.6438   -2.5077   -6.2729 C   0  0
    6.7156   -2.2171   -7.0866 C   0  0
    6.8624   -2.8744   -8.3094 C   0  0
    5.9251   -3.8302   -8.7056 C   0  0
    4.8556   -4.1250   -7.8904 C   0  0
    8.0115   -2.5576   -9.1861 C   0  0
    8.9963   -1.6606   -8.9408 N   0  5
    9.7962   -1.6918   -9.9524 N   0  0
    9.3630   -2.5534  -10.8044 N   0  0
    8.2831   -3.0973  -10.3597 N   0  0
    2.9555    3.7526   -0.8954 H   0  0
    2.9721    3.7436    0.8827 H   0  0
    2.3315    5.2043    0.0069 H   0  0
   -0.9764    1.9146    0.0217 H   0  0
   -0.9432   -0.5666    0.0080 H   0  0
    3.3561   -0.5163   -0.0331 H   0  0
    3.3316    1.9649   -0.0180 H   0  0
    0.4127   -3.4436   -1.9819 H   0  0
    2.3275   -1.5451   -2.7473 H   0  0
    3.2951   -2.8271   -1.9431 H   0  0
    2.3107   -4.5285   -3.4704 H   0  0
    1.3437   -3.2468   -4.2758 H   0  0
    4.1107   -2.4447   -4.3181 H   0  0
    5.5239   -1.9840   -5.3130 H   0  0
    7.4565   -1.4668   -6.7732 H   0  0
    6.0411   -4.3478   -9.6692 H   0  0
    4.1170   -4.8779   -8.2027 H   0  0
  1  2  1  0
  2  3  1  0
  3  8  2  0
  3  4  1  0
  4  5  2  0
  5  6  1  0
  6  7  2  0
  6  9  1  0
  7  8  1  0
  9 10  2  0
  9 11  2  0
  9 12  1  0
 12 13  1  0
 13 14  1  0
 14 15  1  0
 15 16  1  0
 16 17  2  0
 16 18  1  0
 18 23  2  0
 18 19  1  0
 19 20  2  0
 20 21  1  0
 21 22  2  0
 21 24  1  0
 22 23  1  0
 24 28  2  0
 24 25  1  0
 25 26  1  0
 26 27  2  0
 27 28  1  0
  1 29  1  0
  1 30  1  0
  1 31  1  0
  4 32  1  0
  5 33  1  0
  7 34  1  0
  8 35  1  0
 12 36  1  0
 13 37  1  0
 13 38  1  0
 14 39  1  0
 14 40  1  0
 15 41  1  0
 19 42  1  0
 20 43  1  0
 22 44  1  0
 23 45  1  0
M  CHG  1  25  -1
M  END
> <Name>
ZINC28004824

> <reference>
BDB50084632

> <quality>
0.860

> <status>
decoy

$$$$
ZINC31379732
  SciTegic06061311253D

 60 61  0  0  1  0            999 V2000
   -3.7386    6.6246   -1.0822 C   0  0
   -3.0614    7.6378   -0.1572 C   0  0
   -1.6406    7.2943   -0.0113 N   0  3
   -0.8847    7.6566   -1.2177 C   0  0
    0.4257    6.8677   -1.2547 C   0  0
   -1.0650    7.9301    1.1814 C   0  0  2  0  0  0
   -1.8052    7.4406    2.4277 C   0  0
   -1.7713    5.9766    2.4723 N   0  0
   -2.3641    5.3195    3.4888 C   0  0
   -2.9274    5.9420    4.3693 O   0  0
   -2.3301    3.8532    3.5335 C   0  0
   -1.7271    3.1984    2.5902 N   0  0
   -1.6764    1.8008    2.5985 N   0  0
   -2.5529    1.0909    3.3358 C   0  0
   -2.5106   -0.1209    3.3315 O   0  0
   -3.5829    1.8091    4.1701 C   0  0
   -2.9961    3.1296    4.6733 C   0  0
   -0.6681    1.1041    1.7959 C   0  0  2  0  0  0
    0.7355    1.5165    2.2695 C   0  0
    1.7671    1.0212    1.2160 C   0  0
    0.8665    1.4064   -0.3446 S   0  0
    1.2459    2.7015   -0.7897 O   0  0
    0.9822    0.3010   -1.2300 O   0  0
   -0.8526    1.4768    0.3050 C   0  0
   -1.2066    9.4493    1.0679 C   0  0  1  0  0  0
   -2.6486    9.8521    1.3832 C   0  0
   -0.2595   10.1254    2.0612 C   0  0
   -3.6482    5.6162   -0.6521 H   0  0
   -3.2536    6.6463   -2.0693 H   0  0
   -4.8026    6.8812   -1.1919 H   0  0
   -3.5463    7.6161    0.8299 H   0  0
   -3.1520    8.6458   -0.5882 H   0  0
   -1.5726    6.2737    0.1101 H   0  0
   -0.6629    8.7339   -1.2031 H   0  0
   -1.4815    7.4172   -2.1102 H   0  0
    0.2057    5.7900   -1.2705 H   0  0
    1.0237    7.1061   -0.3628 H   0  0
    0.9922    7.1386   -2.1579 H   0  0
   -0.0001    7.6659    1.2600 H   0  0
   -1.3176    7.8457    3.3267 H   0  0
   -2.8504    7.7815    2.3923 H   0  0
   -1.2944    5.4495    1.7268 H   0  0
   -3.8632    1.1819    5.0292 H   0  0
   -4.4736    2.0136    3.5579 H   0  0
   -3.8024    3.7548    5.0844 H   0  0
   -2.2552    2.9244    5.4600 H   0  0
   -0.7844    0.0167    1.9145 H   0  0
    0.9501    1.0516    3.2430 H   0  0
    0.7907    2.6119    2.3537 H   0  0
    1.9235   -0.0643    1.3006 H   0  0
    2.6944    1.6105    1.2694 H   0  0
   -1.4760    0.7282   -0.2059 H   0  0
   -1.2471    2.4990    0.2075 H   0  0
   -0.9527    9.7658    0.0455 H   0  0
   -2.9035    9.5362    2.4056 H   0  0
   -3.3304    9.3667    0.6694 H   0  0
   -2.7511   10.9443    1.3018 H   0  0
    0.7776    9.8367    1.8352 H   0  0
   -0.5128    9.8097    3.0840 H   0  0
   -0.3608   11.2177    1.9801 H   0  0
  1  2  1  0
  2  3  1  0
  3  4  1  0
  3  6  1  0
  4  5  1  0
  6  7  1  0
  6 25  1  0
  7  8  1  0
  8  9  1  0
  9 10  2  0
  9 11  1  0
 11 17  1  0
 11 12  2  0
 12 13  1  0
 13 14  1  0
 13 18  1  0
 14 15  2  0
 14 16  1  0
 16 17  1  0
 18 24  1  0
 18 19  1  0
 19 20  1  0
 20 21  1  0
 21 22  2  0
 21 23  2  0
 21 24  1  0
 25 26  1  0
 25 27  1  0
  1 28  1  0
  1 29  1  0
  1 30  1  0
  2 31  1  0
  2 32  1  0
  3 33  1  0
  4 34  1  0
  4 35  1  0
  5 36  1  0
  5 37  1  0
  5 38  1  0
  6 39  1  0
  7 40  1  0
  7 41  1  0
  8 42  1  0
 16 43  1  0
 16 44  1  0
 17 45  1  0
 17 46  1  0
 18 47  1  0
 19 48  1  0
 19 49  1  0
 20 50  1  0
 20 51  1  0
 24 52  1  0
 24 53  1  0
 25 54  1  0
 26 55  1  0
 26 56  1  0
 26 57  1  0
 27 58  1  0
 27 59  1  0
 27 60  1  0
M  CHG  1   3   1
M  END
> <Name>
ZINC31379732

> <reference>
BDB50084632

> <quality>
0.829

> <status>
decoy

$$$$
ZINC29748243
  SciTegic06061311253D

 45 46  0  0  0  0            999 V2000
   -4.8376   10.4372   -1.8411 C   0  0
   -5.6299    9.4130   -1.1559 N   0  3
   -5.2095    8.1670   -0.7815 C   0  0
   -6.2188    7.5458   -0.1967 N   0  0
   -7.2879    8.3472   -0.1607 C   0  0
   -8.3706    8.0653    0.3209 O   0  5
   -6.9692    9.5199   -0.7461 N   0  0
   -3.5991    7.5006   -1.0406 S   0  0
   -3.8146    5.8619   -0.3031 C   0  0
   -2.5259    5.0883   -0.4127 C   0  0
   -1.5571    5.5952   -0.9378 O   0  0
   -2.4499    3.8333    0.0727 N   0  0
   -1.2242    3.1546    0.0712 C   0  0
   -1.1920    1.7790   -0.1165 C   0  0
    0.0158    1.1100   -0.1117 C   0  0
    1.1980    1.8132    0.0691 C   0  0
    1.1671    3.1880    0.2509 C   0  0
   -0.0409    3.8576    0.2521 C   0  0
    2.6689    4.0801    0.4811 S   0  0
    3.5537    3.6581   -0.5477 O   0  0
    2.3083    5.4422    0.6644 O   0  0
    3.3281    3.5684    1.9115 N   0  0
    4.2540    2.4332    1.9268 C   0  0
    2.9853    4.2509    3.1616 C   0  0
    2.3875    1.1546    0.0675 O   0  0
    2.3452   -0.2606   -0.1256 C   0  0
   -4.4776    9.8967   -2.7289 H   0  0
   -3.9638   10.5354   -1.1801 H   0  0
   -5.3403   11.3892   -2.0670 H   0  0
   -6.1864    6.5862    0.1761 H   0  0
   -4.6121    5.3216   -0.8342 H   0  0
   -4.0879    5.9698    0.7569 H   0  0
   -3.2929    3.3731    0.4448 H   0  0
   -2.1285    1.2225   -0.2690 H   0  0
    0.0407    0.0192   -0.2513 H   0  0
   -0.0654    4.9478    0.3964 H   0  0
    5.0490    2.7172    1.2215 H   0  0
    3.6933    1.6146    1.4518 H   0  0
    4.6422    2.1634    2.9200 H   0  0
    1.8874    4.2020    3.2096 H   0  0
    3.2430    5.3046    2.9793 H   0  0
    3.4695    3.8435    4.0614 H   0  0
    1.8329   -0.4267   -1.0847 H   0  0
    1.7046   -0.6627    0.6731 H   0  0
    3.3439   -0.7216   -0.1146 H   0  0
  1  2  1  0
  2  3  2  0
  2  7  1  0
  3  4  1  0
  3  8  1  0
  4  5  1  0
  5  6  1  0
  5  7  2  0
  8  9  1  0
  9 10  1  0
 10 11  2  0
 10 12  1  0
 12 13  1  0
 13 18  2  0
 13 14  1  0
 14 15  2  0
 15 16  1  0
 16 17  2  0
 16 25  1  0
 17 18  1  0
 17 19  1  0
 19 20  2  0
 19 21  2  0
 19 22  1  0
 22 23  1  0
 22 24  1  0
 25 26  1  0
  1 27  1  0
  1 28  1  0
  1 29  1  0
  4 30  1  0
  9 31  1  0
  9 32  1  0
 12 33  1  0
 14 34  1  0
 15 35  1  0
 18 36  1  0
 23 37  1  0
 23 38  1  0
 23 39  1  0
 24 40  1  0
 24 41  1  0
 24 42  1  0
 26 43  1  0
 26 44  1  0
 26 45  1  0
M  CHG  2   2   1   6  -1
M  END
> <Name>
ZINC29748243

> <reference>
BDB50084632

> <quality>
0.794

> <status>
decoy

$$$$
ZINC30715803
  SciTegic06061311253D

 47 49  0  0  1  0            999 V2000
    0.0124    1.5271    0.7872 C   0  0
    0.0248    0.4405   -0.2899 C   0  0  1  0  0  0
   -0.7199    0.9294   -1.5053 C   0  0
   -0.1503    1.0124   -2.5729 O   0  0
   -2.0190    1.2745   -1.4060 N   0  0
   -2.6826    1.8290   -2.5079 C   0  0
   -1.9936    2.6468   -3.3939 C   0  0
   -2.6466    3.1901   -4.4821 C   0  0
   -3.9947    2.9263   -4.6856 C   0  0
   -4.6849    2.1124   -3.7969 C   0  0
   -4.0308    1.5656   -2.7112 C   0  0
   -4.6583    3.4808   -5.7875 N   0  0
   -4.0098    3.6302   -6.9595 C   0  0
   -2.8294    3.3625   -7.0379 O   0  0
   -4.7512    4.1298   -8.1726 C   0  0
   -3.7909    4.2074   -9.3612 C   0  0
   -4.5117    4.6931  -10.5405 N   0  0
   -5.1600    3.9249  -11.4696 C   0  0
   -5.6854    4.7707  -12.3764 C   0  0
   -5.3588    6.0206  -12.0159 N   0  0
   -4.6557    5.9819  -10.9172 C   0  0
   -6.4788    4.3876  -13.5659 N   0  0
   -6.8980    5.2467  -14.3207 O   0  0
   -6.7125    3.2134  -13.7897 O   0  0
    1.4093    0.1324   -0.6567 N   0  0
    2.4369    0.9966   -0.7217 C   0  0
    3.5042    0.3318   -1.0831 N   0  0
    3.1970   -0.9519   -1.2652 C   0  0
    1.9253   -1.1234   -1.0162 N   0  0
   -1.0268    1.7591    1.0635 H   0  0
    0.4994    2.4342    0.4000 H   0  0
    0.5559    1.1708    1.6747 H   0  0
   -0.4622   -0.4662    0.0983 H   0  0
   -2.5238    1.1305   -0.5198 H   0  0
   -0.9275    2.8617   -3.2286 H   0  0
   -2.0991    3.8319   -5.1880 H   0  0
   -5.7528    1.9035   -3.9581 H   0  0
   -4.5776    0.9212   -2.0071 H   0  0
   -5.6419    3.7744   -5.7021 H   0  0
   -5.5732    3.4386   -8.4105 H   0  0
   -5.1608    5.1298   -7.9673 H   0  0
   -3.3811    3.2079   -9.5688 H   0  0
   -2.9689    4.8988   -9.1241 H   0  0
   -5.2370    2.8276  -11.4746 H   0  0
   -4.2479    6.8545  -10.3859 H   0  0
    2.3888    2.0746   -0.5083 H   0  0
    3.8996   -1.7396   -1.5749 H   0  0
  1  2  1  0
  2  3  1  0
  2 25  1  0
  3  4  2  0
  3  5  1  0
  5  6  1  0
  6 11  2  0
  6  7  1  0
  7  8  2  0
  8  9  1  0
  9 10  2  0
  9 12  1  0
 10 11  1  0
 12 13  1  0
 13 14  2  0
 13 15  1  0
 15 16  1  0
 16 17  1  0
 17 21  1  0
 17 18  1  0
 18 19  2  0
 19 20  1  0
 19 22  1  0
 20 21  2  0
 22 23  2  0
 22 24  2  0
 25 29  1  0
 25 26  1  0
 26 27  2  0
 27 28  1  0
 28 29  2  0
  1 30  1  0
  1 31  1  0
  1 32  1  0
  2 33  1  0
  5 34  1  0
  7 35  1  0
  8 36  1  0
 10 37  1  0
 11 38  1  0
 12 39  1  0
 15 40  1  0
 15 41  1  0
 16 42  1  0
 16 43  1  0
 18 44  1  0
 21 45  1  0
 26 46  1  0
 28 47  1  0
M  END
> <Name>
ZINC30715803

> <reference>
BDB50084632

> <quality>
0.792

> <status>
decoy

$$$$
ZINC02804473
  SciTegic06061311253D

 56 57  0  0  0  0            999 V2000
   -0.0187    1.5258    0.0104 C   0  0
    0.0021   -0.0041    0.0020 C   0  0
    0.7106   -0.4894    1.1889 N   0  0
    0.2007   -1.3625    2.0950 C   0  0
    1.1577   -1.5610    3.0400 C   0  0
    2.2560   -0.7572    2.6390 C   0  0
    1.9058   -0.1544    1.5193 N   0  0
    3.5479   -0.6254    3.3389 C   0  0
    3.7483   -1.2433    4.3667 O   0  0
    4.5060    0.1800    2.8390 N   0  0
    5.7889    0.3109    3.5341 C   0  0
    6.6904    1.2773    2.7632 C   0  0  1  0  0  0
    6.0735    2.6773    2.7849 C   0  0
    8.0722    1.3187    3.4186 C   0  0
    1.0764   -2.3861    4.1723 N   0  0
   -0.0467   -3.0912    4.4132 C   0  0
   -0.9872   -3.0126    3.6513 O   0  0
   -0.1339   -3.9772    5.6291 C   0  0  2  0  0  0
    0.9652   -5.0403    5.5652 C   0  0
    0.8952   -5.9173    6.8192 C   0  0
   -0.4642   -6.4614    6.9406 N   0  0
   -1.6016   -5.5316    6.9212 C   0  0
   -1.5037   -4.6588    5.6660 C   0  0
   -0.7097   -8.0917    7.0957 S   0  0
    0.4881   -8.5849    7.6798 O   0  0
   -1.9502   -8.2082    7.7789 O   0  0
   -0.8732   -8.7024    5.3954 C   0  0
    1.0129    1.9076    0.0024 H   0  0
   -0.5337    1.8816    0.9150 H   0  0
   -0.5506    1.8909   -0.8806 H   0  0
   -1.0298   -0.3850    0.0103 H   0  0
    0.5170   -0.3599   -0.9025 H   0  0
   -0.7982   -1.8225    2.0694 H   0  0
    4.3362    0.7034    1.9683 H   0  0
    6.2759   -0.6735    3.5958 H   0  0
    5.6183    0.6998    4.5488 H   0  0
    6.7885    0.9358    1.7222 H   0  0
    5.9753    3.0198    3.8256 H   0  0
    5.0800    2.6488    2.3136 H   0  0
    6.7211    3.3727    2.2308 H   0  0
    8.5167    0.3126    3.4034 H   0  0
    7.9752    1.6603    4.4597 H   0  0
    8.7208    2.0134    2.8648 H   0  0
    1.8751   -2.4528    4.8193 H   0  0
   -0.0029   -3.3695    6.5366 H   0  0
    1.9488   -4.5504    5.5153 H   0  0
    0.8197   -5.6656    4.6720 H   0  0
    1.6159   -6.7437    6.7315 H   0  0
    1.1296   -5.3117    7.7070 H   0  0
   -2.5427   -6.1007    6.9008 H   0  0
   -1.5721   -4.8928    7.8162 H   0  0
   -2.2939   -3.8939    5.6889 H   0  0
   -1.6261   -5.2879    4.7720 H   0  0
    0.0444   -8.5312    4.8134 H   0  0
   -1.7398   -8.2556    4.8860 H   0  0
   -1.0390   -9.7888    5.4436 H   0  0
  1  2  1  0
  2  3  1  0
  3  7  1  0
  3  4  1  0
  4  5  2  0
  5  6  1  0
  5 15  1  0
  6  7  2  0
  6  8  1  0
  8  9  2  0
  8 10  1  0
 10 11  1  0
 11 12  1  0
 12 13  1  0
 12 14  1  0
 15 16  1  0
 16 17  2  0
 16 18  1  0
 18 23  1  0
 18 19  1  0
 19 20  1  0
 20 21  1  0
 21 22  1  0
 21 24  1  0
 22 23  1  0
 24 25  2  0
 24 26  2  0
 24 27  1  0
  1 28  1  0
  1 29  1  0
  1 30  1  0
  2 31  1  0
  2 32  1  0
  4 33  1  0
 10 34  1  0
 11 35  1  0
 11 36  1  0
 12 37  1  0
 13 38  1  0
 13 39  1  0
 13 40  1  0
 14 41  1  0
 14 42  1  0
 14 43  1  0
 15 44  1  0
 18 45  1  0
 19 46  1  0
 19 47  1  0
 20 48  1  0
 20 49  1  0
 22 50  1  0
 22 51  1  0
 23 52  1  0
 23 53  1  0
 27 54  1  0
 27 55  1  0
 27 56  1  0
M  END
> <Name>
ZINC02804473

> <reference>
BDB50084632

> <quality>
0.763

> <status>
decoy

$$$$
ZINC15082735
  SciTegic06061311253D

 43 45  0  0  0  0            999 V2000
   14.3683    3.2478   -7.5206 C   0  0
   14.4076    4.0594   -8.6406 C   0  0
   13.2705    4.7245   -9.0594 C   0  0
   12.0860    4.5811   -8.3599 C   0  0
   12.0419    3.7633   -7.2304 C   0  0
   13.1938    3.1009   -6.8113 C   0  0
   10.7746    3.6044   -6.4747 C   0  0
   10.5912    2.8501   -5.3720 N   0  0
    9.3261    3.0060   -5.0434 C   0  0
    8.7863    3.8357   -5.9491 O   0  0
    9.6283    4.1712   -6.7550 N   0  0
    8.6288    2.3789   -3.8948 C   0  0
    9.2350    1.6374   -3.1474 O   0  0
    7.3225    2.6315   -3.6800 N   0  0
    6.6335    2.0120   -2.5452 C   0  0
    5.1709    2.4607   -2.5298 C   0  0
    4.4820    1.8412   -1.3950 N   0  0
    3.1756    2.0938   -1.1801 C   0  0
    2.5705    2.8341   -1.9262 O   0  0
    2.4670    1.4565   -0.0128 C   0  0
    1.0665    1.8862    0.0020 N   0  0
   -0.0126    1.0758    0.0080 C   0  0
   -1.1162    1.8587    0.0168 C   0  0
   -0.6973    3.1931    0.0251 C   0  0
    0.6109    3.2108    0.0130 N   0  0
   -2.5190    1.3863    0.0197 N   0  0
   -2.7596    0.1923    0.0140 O   0  0
   -3.4328    2.1915    0.0279 O   0  0
   10.9748    5.2314   -8.7691 F   0  0
   15.2757    2.7183   -7.1948 H   0  0
   15.3476    4.1758   -9.2000 H   0  0
   13.3077    5.3687   -9.9502 H   0  0
   13.1670    2.4618   -5.9164 H   0  0
    6.8085    3.2601   -4.3137 H   0  0
    6.6796    0.9172   -2.6413 H   0  0
    7.1202    2.3186   -1.6076 H   0  0
    5.1241    3.5555   -2.4333 H   0  0
    4.6822    2.1539   -3.4663 H   0  0
    4.9960    1.2126   -0.7613 H   0  0
    2.5131    0.3617   -0.1090 H   0  0
    2.9537    1.7630    0.9248 H   0  0
    0.0023   -0.0241    0.0061 H   0  0
   -1.3542    4.0753    0.0393 H   0  0
  1  6  2  0
  1  2  1  0
  2  3  2  0
  3  4  1  0
  4  5  2  0
  4 29  1  0
  5  6  1  0
  5  7  1  0
  7 11  2  0
  7  8  1  0
  8  9  2  0
  9 10  1  0
  9 12  1  0
 10 11  1  0
 12 13  2  0
 12 14  1  0
 14 15  1  0
 15 16  1  0
 16 17  1  0
 17 18  1  0
 18 19  2  0
 18 20  1  0
 20 21  1  0
 21 25  1  0
 21 22  1  0
 22 23  2  0
 23 24  1  0
 23 26  1  0
 24 25  2  0
 26 27  2  0
 26 28  2  0
  1 30  1  0
  2 31  1  0
  3 32  1  0
  6 33  1  0
 14 34  1  0
 15 35  1  0
 15 36  1  0
 16 37  1  0
 16 38  1  0
 17 39  1  0
 20 40  1  0
 20 41  1  0
 22 42  1  0
 24 43  1  0
M  END
> <Name>
ZINC15082735

> <reference>
BDB50084632

> <quality>
0.761

> <status>
decoy

$$$$
ZINC05676497
  SciTegic06061311253D

 52 53  0  0  1  0            999 V2000
   15.2343   -4.9852   -1.4890 C   0  0
   13.7719   -4.5430   -1.4077 C   0  0
   13.5648   -3.6945   -0.1515 C   0  0  2  0  0  0
   13.7964   -4.5574    1.0906 C   0  0
   12.1569   -3.1574   -0.1346 C   0  0
   11.9392   -1.7920   -0.1247 C   0  0
   10.6495   -1.2971   -0.1092 C   0  0
    9.5723   -2.1713   -0.1037 C   0  0
    9.7935   -3.5409   -0.1080 C   0  0
   11.0850   -4.0308   -0.1297 C   0  0
    8.3026   -1.6869   -0.0885 O   0  0
    7.2427   -2.6453   -0.0837 C   0  0
    5.9173   -1.9283   -0.0666 C   0  0
    5.8837   -0.7153   -0.0594 O   0  0
    4.7701   -2.6337   -0.0595 N   0  0
    3.6356   -2.0200   -0.0449 N   0  0
    2.4982   -2.7194   -0.0378 C   0  0
    1.2733   -2.0568   -0.0221 C   0  0
    1.2155   -0.6532   -0.0187 C   0  0
    0.0021   -0.0041    0.0020 C   0  0
   -1.2233   -0.7032    0.0100 C   0  0
   -1.2663   -2.0571    0.0027 C   0  0
   -0.0043   -2.8190   -0.0140 C   0  0
   -0.0076   -4.0348   -0.0213 O   0  0
   -2.4587   -2.7054    0.0110 O   0  0
   -3.6367   -1.8967    0.0276 C   0  0
   -0.0167    1.3796    0.0096 N   0  0
    1.1998    2.1042    0.0019 O   0  0
   -1.2525    2.0709    0.0192 O   0  0
   15.4885   -5.5803   -0.5995 H   0  0
   15.8844   -4.0991   -1.5347 H   0  0
   15.3839   -5.5953   -2.3920 H   0  0
   13.5187   -3.9478   -2.2974 H   0  0
   13.1217   -5.4291   -1.3620 H   0  0
   14.2770   -2.8562   -0.1537 H   0  0
   14.8240   -4.9498    1.0794 H   0  0
   13.0844   -5.3959    1.0939 H   0  0
   13.6477   -3.9480    1.9942 H   0  0
   12.7936   -1.0992   -0.1292 H   0  0
   10.4768   -0.2108   -0.1012 H   0  0
    8.9412   -4.2362   -0.0941 H   0  0
   11.2608   -5.1166   -0.1431 H   0  0
    7.3261   -3.2815    0.8098 H   0  0
    7.3092   -3.2703   -0.9864 H   0  0
    2.5286   -3.8190   -0.0444 H   0  0
    2.1471   -0.0685   -0.0327 H   0  0
   -2.1656   -0.1358    0.0225 H   0  0
   -3.5787   -1.2474   -0.8584 H   0  0
   -3.5607   -1.2577    0.9198 H   0  0
   -4.5615   -2.4923    0.0335 H   0  0
    1.6830    1.7845   -0.8009 H   0  0
   -1.7306    1.7294    0.8160 H   0  0
  1  2  1  0
  2  3  1  0
  3  4  1  0
  3  5  1  0
  5 10  2  0
  5  6  1  0
  6  7  2  0
  7  8  1  0
  8  9  2  0
  8 11  1  0
  9 10  1  0
 11 12  1  0
 12 13  1  0
 13 14  2  0
 13 15  1  0
 15 16  2  0
 16 17  1  0
 17 18  2  0
 18 23  1  0
 18 19  1  0
 19 20  2  0
 20 21  1  0
 20 27  1  0
 21 22  2  0
 22 23  1  0
 22 25  1  0
 23 24  2  0
 25 26  1  0
 27 28  1  0
 27 29  1  0
  1 30  1  0
  1 31  1  0
  1 32  1  0
  2 33  1  0
  2 34  1  0
  3 35  1  0
  4 36  1  0
  4 37  1  0
  4 38  1  0
  6 39  1  0
  7 40  1  0
  9 41  1  0
 10 42  1  0
 12 43  1  0
 12 44  1  0
 17 45  1  0
 19 46  1  0
 21 47  1  0
 26 48  1  0
 26 49  1  0
 26 50  1  0
 28 51  1  0
 29 52  1  0
M  END
> <Name>
ZINC05676497

> <reference>
BDB50084632

> <quality>
0.757

> <status>
decoy

$$$$
ZINC25673365
  SciTegic06061311253D

 49 51  0  0  0  0            999 V2000
    1.8060    0.6548    3.4953 C   0  0
    1.0887    0.7653    2.3202 C   0  0
   -0.1264    1.4380    2.3108 C   0  0
   -0.6134    2.0025    3.4831 C   0  0
    0.1061    1.8833    4.6557 C   0  0
    1.3157    1.2128    4.6615 C   0  0
    2.0874    1.0928    5.9188 N   0  0
    3.1530    0.5030    5.9254 O   0  0
    1.6567    1.5839    6.9468 O   0  0
   -2.1509    2.8631    3.4753 S   0  0
   -2.0706    3.8285    2.4356 O   0  0
   -3.1702    1.8741    3.5195 O   0  0
   -2.2474    3.7061    4.8974 N   0  0
   -2.9733    3.1590    6.0545 C   0  0
   -2.0511    3.2416    7.2815 C   0  0
   -1.5641    4.5793    7.4128 O   0  0
   -0.7634    5.0212    6.3140 C   0  0
   -1.6149    5.0272    5.0393 C   0  0
   -0.8544    1.5516    1.1242 N   0  0
   -0.2808    1.0725   -0.1358 C   0  0
   -1.2753    1.3135   -1.2732 C   0  0
   -0.7017    0.8345   -2.5333 N   0  0
   -1.4042    0.9441   -3.6782 C   0  0
   -2.5112    1.4393   -3.6655 O   0  0
   -0.8141    0.4514   -4.9744 C   0  0  2  0  0  0
   -0.4369    1.5000   -6.0227 C   0  0
   -1.6602    0.6059   -6.2397 C   0  0
    2.7685    0.1223    3.5034 H   0  0
    1.4793    0.3210    1.3928 H   0  0
   -0.2833    2.3221    5.5862 H   0  0
   -3.2395    2.1090    5.8632 H   0  0
   -3.8822    3.7516    6.2354 H   0  0
   -2.6155    2.9661    8.1846 H   0  0
   -1.2028    2.5534    7.1519 H   0  0
   -0.3947    6.0382    6.5135 H   0  0
    0.0895    4.3392    6.1818 H   0  0
   -0.9730    5.2253    4.1682 H   0  0
   -2.3907    5.8031    5.1182 H   0  0
   -1.7945    1.9722    1.1351 H   0  0
    0.6525    1.6162   -0.3442 H   0  0
   -0.0684   -0.0039   -0.0574 H   0  0
   -2.2087    0.7697   -1.0657 H   0  0
   -1.4881    2.3897   -1.3538 H   0  0
    0.2385    0.4140   -2.5442 H   0  0
   -0.2907   -0.3834   -4.4854 H   0  0
    0.4158    1.1707   -6.6346 H   0  0
   -0.7291    2.5116   -5.7043 H   0  0
   -2.5957    1.1476   -6.0362 H   0  0
   -1.4505   -0.1940   -6.9650 H   0  0
  1  6  2  0
  1  2  1  0
  2  3  2  0
  3  4  1  0
  3 19  1  0
  4  5  2  0
  4 10  1  0
  5  6  1  0
  6  7  1  0
  7  8  2  0
  7  9  2  0
 10 11  2  0
 10 12  2  0
 10 13  1  0
 13 18  1  0
 13 14  1  0
 14 15  1  0
 15 16  1  0
 16 17  1  0
 17 18  1  0
 19 20  1  0
 20 21  1  0
 21 22  1  0
 22 23  1  0
 23 24  2  0
 23 25  1  0
 25 27  1  0
 25 26  1  0
 26 27  1  0
  1 28  1  0
  2 29  1  0
  5 30  1  0
 14 31  1  0
 14 32  1  0
 15 33  1  0
 15 34  1  0
 17 35  1  0
 17 36  1  0
 18 37  1  0
 18 38  1  0
 19 39  1  0
 20 40  1  0
 20 41  1  0
 21 42  1  0
 21 43  1  0
 22 44  1  0
 25 45  1  0
 26 46  1  0
 26 47  1  0
 27 48  1  0
 27 49  1  0
M  END
> <Name>
ZINC25673365

> <reference>
BDB50084632

> <quality>
0.750

> <status>
decoy

$$$$
ZINC20157186
  SciTegic06061311253D

 57 59  0  0  0  0            999 V2000
   -2.0327   -5.9227   -0.2605 C   0  0
   -1.2939   -4.6148   -0.1403 C   0  0
   -0.3787   -4.2450   -1.1111 C   0  0
   -0.1241   -2.8942   -1.6340 C   0  0
    0.8124   -2.9901   -2.5275 N   0  0
    1.2329   -4.3109   -2.6817 N   0  0
    0.5449   -5.1166   -1.8477 C   0  0
    0.6657   -6.3245   -1.7290 O   0  0
    2.2263   -4.7385   -3.5740 C   0  0
    2.5693   -6.0824   -3.6394 C   0  0
    3.5444   -6.5036   -4.5217 C   0  0
    4.1883   -5.5829   -5.3356 C   0  0
    3.8500   -4.2392   -5.2667 C   0  0
    2.8715   -3.8175   -4.3885 C   0  0
    5.1516   -5.9976   -6.2008 O   0  0
    5.4491   -7.3951   -6.2191 C   0  0
   -0.8218   -1.6282   -1.2076 C   0  0
   -0.5129   -0.5289   -2.1910 C   0  0
   -0.0542   -0.7997   -3.2755 O   0  0
   -0.7472    0.7512   -1.8620 O   0  0
   -0.5554    1.7451   -2.9030 C   0  0
   -1.5241   -3.8046    0.9128 N   0  0
   -1.6124   -4.3287    2.1712 N   0  0
   -2.8649   -3.9227    2.8241 C   0  0
   -2.8890   -4.4628    4.2559 C   0  0
   -2.7641   -5.9267    4.2267 N   0  3
   -1.5116   -6.3327    3.5739 C   0  0
   -1.4875   -5.7926    2.1420 C   0  0
   -2.8590   -6.4903    5.5800 C   0  0
   -1.2470   -6.6891   -0.3330 H   0  0
   -2.5348   -5.8785   -1.2382 H   0  0
   -2.7341   -6.1154    0.5647 H   0  0
    2.0644   -6.8113   -2.9885 H   0  0
    3.8107   -7.5693   -4.5792 H   0  0
    4.3614   -3.5096   -5.9118 H   0  0
    2.6032   -2.7521   -4.3342 H   0  0
    4.5042   -7.9095   -6.4485 H   0  0
    5.7385   -7.6632   -5.1923 H   0  0
    6.2367   -7.6530   -6.9424 H   0  0
   -0.4709   -1.3338   -0.2075 H   0  0
   -1.9080   -1.7996   -1.1794 H   0  0
   -1.2148    1.4547   -3.7342 H   0  0
    0.4851    1.6399   -3.2441 H   0  0
   -0.7667    2.7675   -2.5565 H   0  0
   -1.6333   -2.7906    0.7683 H   0  0
   -2.9286   -2.8248    2.8456 H   0  0
   -3.7203   -4.3296    2.2648 H   0  0
   -3.8382   -4.1858    4.7378 H   0  0
   -2.0498   -4.0347    4.8238 H   0  0
   -3.5474   -6.3016    3.6728 H   0  0
   -1.4469   -7.4306    3.5523 H   0  0
   -0.6569   -5.9250    4.1337 H   0  0
   -0.5382   -6.0715    1.6614 H   0  0
   -2.3266   -6.2214    1.5745 H   0  0
   -3.8315   -6.2133    6.0130 H   0  0
   -2.0552   -6.0654    6.1991 H   0  0
   -2.7639   -7.5856    5.5427 H   0  0
  1  2  1  0
  2  3  2  3
  2 22  1  0
  3  7  1  0
  3  4  1  0
  4  5  2  0
  4 17  1  0
  5  6  1  0
  6  7  1  0
  6  9  1  0
  7  8  2  0
  9 14  2  0
  9 10  1  0
 10 11  2  0
 11 12  1  0
 12 13  2  0
 12 15  1  0
 13 14  1  0
 15 16  1  0
 17 18  1  0
 18 19  2  0
 18 20  1  0
 20 21  1  0
 22 23  1  0
 23 28  1  0
 23 24  1  0
 24 25  1  0
 25 26  1  0
 26 27  1  0
 26 29  1  0
 27 28  1  0
  1 30  1  0
  1 31  1  0
  1 32  1  0
 10 33  1  0
 11 34  1  0
 13 35  1  0
 14 36  1  0
 16 37  1  0
 16 38  1  0
 16 39  1  0
 17 40  1  0
 17 41  1  0
 21 42  1  0
 21 43  1  0
 21 44  1  0
 22 45  1  0
 24 46  1  0
 24 47  1  0
 25 48  1  0
 25 49  1  0
 26 50  1  0
 27 51  1  0
 27 52  1  0
 28 53  1  0
 28 54  1  0
 29 55  1  0
 29 56  1  0
 29 57  1  0
M  CHG  1  26   1
M  END
> <Name>
ZINC20157186

> <reference>
BDB50084632

> <quality>
0.749

> <status>
decoy

$$$$
ZINC23256591
  SciTegic06061311253D

 54 56  0  0  1  0            999 V2000
   -1.2849   -5.5148   -3.5902 C   0  0
   -0.6647   -4.2101   -3.4443 O   0  0
   -0.2811   -3.8524   -2.2088 C   0  0
   -0.4577   -4.6046   -1.2798 O   0  0
    0.3700   -2.5127   -1.9802 C   0  0
    0.7065   -2.3558   -0.4959 C   0  0  1  0  0  0
    1.4726   -1.0701   -0.2557 C   0  0
    2.5526   -0.7646   -0.7143 O   0  0
    0.7040   -0.3375    0.5741 N   0  0
   -0.4273   -0.9771    0.8923 C   0  0
   -1.2776   -0.5192    1.6301 O   0  0
   -0.5200   -2.1820    0.3014 N   0  5
    1.0653    0.9923    1.0713 C   0  0
    0.3326    2.0146    0.3124 N   0  0
    0.5205    3.3217    0.8930 C   0  0
   -0.7586    4.1833    0.8371 C   0  0
   -1.4934    4.0280   -0.5110 C   0  0
   -0.5899    3.9944   -1.6341 N   0  3
   -0.2689    2.5911   -1.9809 C   0  0
    0.7570    2.0282   -1.1063 C   0  0
   -1.1574    4.7052   -2.7877 C   0  0
   -2.4783    4.0831   -3.1609 C   0  0
   -2.5096    2.9894   -4.0078 C   0  0
   -3.7149    2.4121   -4.3497 C   0  0
   -4.9058    2.9404   -3.8473 C   0  0
   -4.8672    4.0476   -2.9973 C   0  0
   -3.6546    4.6118   -2.6595 C   0  0
   -6.1610    2.3493   -4.2019 C   0  0
   -7.1567    1.8804   -4.4832 N   0  0
   -2.1577   -5.5198   -2.9207 H   0  0
   -0.5598   -6.2474   -3.2061 H   0  0
   -1.5705   -5.7341   -4.6296 H   0  0
    1.2938   -2.4477   -2.5739 H   0  0
   -0.3194   -1.7118   -2.2858 H   0  0
    1.2756   -3.2541   -0.2146 H   0  0
    0.8031    1.0692    2.1368 H   0  0
    2.1469    1.1499    0.9476 H   0  0
    0.8298    3.2059    1.9423 H   0  0
    1.3267    3.8410    0.3541 H   0  0
   -1.4331    3.8816    1.6520 H   0  0
   -0.4898    5.2402    0.9811 H   0  0
   -2.1914    4.8683   -0.6400 H   0  0
   -2.0789    3.0969   -0.4962 H   0  0
    0.2814    4.4765   -1.3709 H   0  0
    0.0844    2.5484   -3.0217 H   0  0
   -1.1819    1.9828   -1.9008 H   0  0
    0.9770    0.9993   -1.4272 H   0  0
    1.6765    2.6245   -1.2014 H   0  0
   -0.4657    4.6342   -3.6401 H   0  0
   -1.3113    5.7628   -2.5274 H   0  0
   -1.5712    2.5793   -4.4094 H   0  0
   -3.7378    1.5376   -5.0166 H   0  0
   -5.8016    4.4689   -2.5980 H   0  0
   -3.6227    5.4840   -1.9900 H   0  0
  1  2  1  0
  2  3  1  0
  3  4  2  0
  3  5  1  0
  5  6  1  0
  6 12  1  0
  6  7  1  0
  7  8  2  0
  7  9  1  0
  9 10  1  0
  9 13  1  0
 10 11  2  0
 10 12  1  0
 13 14  1  0
 14 20  1  0
 14 15  1  0
 15 16  1  0
 16 17  1  0
 17 18  1  0
 18 19  1  0
 18 21  1  0
 19 20  1  0
 21 22  1  0
 22 27  2  0
 22 23  1  0
 23 24  2  0
 24 25  1  0
 25 26  2  0
 25 28  1  0
 26 27  1  0
 28 29  3  0
  1 30  1  0
  1 31  1  0
  1 32  1  0
  5 33  1  0
  5 34  1  0
  6 35  1  0
 13 36  1  0
 13 37  1  0
 15 38  1  0
 15 39  1  0
 16 40  1  0
 16 41  1  0
 17 42  1  0
 17 43  1  0
 18 44  1  0
 19 45  1  0
 19 46  1  0
 20 47  1  0
 20 48  1  0
 21 49  1  0
 21 50  1  0
 23 51  1  0
 24 52  1  0
 26 53  1  0
 27 54  1  0
M  CHG  2  12  -1  18   1
M  END
> <Name>
ZINC23256591

> <reference>
BDB50084632

> <quality>
0.740

> <status>
decoy

$$$$
ZINC11277701
  SciTegic06061311253D

 48 49  0  0  1  0            999 V2000
   -5.0100    5.2765    6.1795 C   0  0
   -3.7015    4.6102    6.6091 C   0  0  2  0  0  0
   -2.9197    5.5560    7.4840 C   0  0
   -1.8511    5.9871    7.1073 O   0  0
   -3.4086    5.9225    8.6853 N   0  0
   -2.7095    6.7683    9.4678 C   0  0
   -1.6382    7.2006    9.0901 O   0  0
   -3.1983    7.1349   10.6691 N   0  0
   -2.4384    8.0543   11.5196 C   0  0  2  0  0  0
   -2.3411    7.7211   13.0097 C   0  0
   -3.2211    8.8824   12.5406 C   0  0
   -2.9176    4.2796    5.4324 O   0  0
   -3.1182    3.0650    4.8854 C   0  0
   -3.9257    2.3029    5.3779 O   0  0
   -2.3560    2.6599    3.6865 C   0  0
   -2.5613    1.4017    3.1170 C   0  0
   -1.8459    1.0296    1.9978 C   0  0
   -0.9267    1.9002    1.4394 C   0  0
   -0.7144    3.1465    2.0018 C   0  0
   -1.4266    3.5332    3.1182 C   0  0
   -0.0172    1.4168    0.0098 S   0  0
    0.0021   -0.0041    0.0020 O   0  0
    1.1718    2.1948    0.0027 O   0  0
   -0.8975    1.8855   -1.3122 N   0  0
   -0.6153    3.1672   -1.9633 C   0  0
   -1.9229    1.0474   -1.8134 O   0  0
   -3.2071    1.2913   -1.2359 C   0  0
   -4.7874    6.1955    5.6175 H   0  0
   -5.6047    5.5272    7.0703 H   0  0
   -5.5811    4.5866    5.5408 H   0  0
   -3.9252    3.6913    7.1708 H   0  0
   -4.3165    5.5562    9.0054 H   0  0
   -4.1062    6.7686   10.9892 H   0  0
   -1.7135    8.2823   10.7243 H   0  0
   -1.3966    8.0816   13.4432 H   0  0
   -2.9438    6.8371   13.2653 H   0  0
   -4.2866    8.6093   12.5504 H   0  0
   -2.7390    9.8534   12.7267 H   0  0
   -3.2919    0.7087    3.5598 H   0  0
   -2.0065    0.0386    1.5482 H   0  0
    0.0239    3.8304    1.5577 H   0  0
   -1.2626    4.5273    3.5596 H   0  0
    0.4540    3.1176   -2.2164 H   0  0
   -0.7113    3.9113   -1.1589 H   0  0
   -1.2486    3.3960   -2.8331 H   0  0
   -3.4637    2.3433   -1.4296 H   0  0
   -3.1144    1.1500   -0.1490 H   0  0
   -3.9717    0.6196   -1.6532 H   0  0
  1  2  1  0
  2  3  1  0
  2 12  1  0
  3  4  2  0
  3  5  1  0
  5  6  1  0
  6  7  2  0
  6  8  1  0
  8  9  1  0
  9 11  1  0
  9 10  1  0
 10 11  1  0
 12 13  1  0
 13 14  2  0
 13 15  1  0
 15 20  2  0
 15 16  1  0
 16 17  2  0
 17 18  1  0
 18 19  2  0
 18 21  1  0
 19 20  1  0
 21 22  2  0
 21 23  2  0
 21 24  1  0
 24 25  1  0
 24 26  1  0
 26 27  1  0
  1 28  1  0
  1 29  1  0
  1 30  1  0
  2 31  1  0
  5 32  1  0
  8 33  1  0
  9 34  1  0
 10 35  1  0
 10 36  1  0
 11 37  1  0
 11 38  1  0
 16 39  1  0
 17 40  1  0
 19 41  1  0
 20 42  1  0
 25 43  1  0
 25 44  1  0
 25 45  1  0
 27 46  1  0
 27 47  1  0
 27 48  1  0
M  END
> <Name>
ZINC11277701

> <reference>
BDB50084632

> <quality>
0.739

> <status>
decoy

$$$$
ZINC24232395
  SciTegic06061311253D

 54 55  0  0  0  0            999 V2000
   -1.1615    4.0656    3.8189 C   0  0
   -1.1964    2.9122    2.9163 N   0  0
   -0.3595    2.6654    1.8904 C   0  0
    0.5602    3.3958    1.5775 O   0  0
   -0.6564    1.5269    1.2518 N   0  0
   -1.7184    0.9079    1.8078 C   0  0
   -2.2230   -0.1382    1.4601 O   0  0
   -2.1469    1.7938    2.9552 C   0  0  1  0  0  0
   -2.0349    1.0422    4.2770 C   0  0
   -2.4458    1.9641    5.4279 C   0  0
   -3.8847    2.4376    5.2115 C   0  0
   -3.9755    3.2106    3.8943 C   0  0
   -3.5707    2.2938    2.7371 C   0  0
    0.0838    1.0137    0.0964 C   0  0
   -0.5319    1.5464   -1.1717 C   0  0
   -1.4907    2.2796   -1.1161 O   0  0
   -0.0152    1.2065   -2.3630 O   0  0
   -0.6594    1.7568   -3.5422 C   0  0
    0.0528    1.2689   -4.7774 C   0  0
    1.0087    0.5305   -4.6742 O   0  0
   -0.3730    1.6536   -5.9969 N   0  0
    0.2639    1.2173   -7.1017 C   0  0
    1.2223    0.4770   -6.9982 O   0  0
   -0.1618    1.6020   -8.3212 N   0  0
    0.5305    1.1277   -9.5220 C   0  0
   -0.1483    1.7076  -10.7646 C   0  0
    0.0085    3.1279  -10.7739 O   0  0
   -0.5926    3.7717  -11.8992 C   0  0
   -1.1189    3.5791    4.8045 H   0  0
   -2.1883    4.4506    3.7322 H   0  0
   -0.3789    4.8203    3.6518 H   0  0
   -0.9960    0.7127    4.4255 H   0  0
   -2.6976    0.1645    4.2569 H   0  0
   -2.3799    1.4154    6.3790 H   0  0
   -1.7746    2.8351    5.4592 H   0  0
   -4.1848    3.0935    6.0420 H   0  0
   -4.5553    1.5666    5.1717 H   0  0
   -5.0084    3.5573    3.7428 H   0  0
   -3.2987    4.0771    3.9288 H   0  0
   -3.6217    2.8537    1.7917 H   0  0
   -4.2584    1.4365    2.6921 H   0  0
    0.0405   -0.0854    0.0905 H   0  0
    1.1327    1.3390    0.1588 H   0  0
   -0.6173    2.8554   -3.5054 H   0  0
   -1.7096    1.4309   -3.5723 H   0  0
   -1.1851    2.2810   -6.0846 H   0  0
   -0.9739    2.2295   -8.4089 H   0  0
    0.4884    0.0292   -9.5611 H   0  0
    1.5807    1.4536   -9.4928 H   0  0
    0.3142    1.2822  -11.6674 H   0  0
   -1.2194    1.4578  -10.7489 H   0  0
   -1.6632    3.5191  -11.8929 H   0  0
   -0.1398    3.3449  -12.8063 H   0  0
   -0.4481    4.8617  -11.8661 H   0  0
  1  2  1  0
  2  8  1  0
  2  3  1  0
  3  4  2  0
  3  5  1  0
  5  6  1  0
  5 14  1  0
  6  7  2  0
  6  8  1  0
  8 13  1  0
  8  9  1  0
  9 10  1  0
 10 11  1  0
 11 12  1  0
 12 13  1  0
 14 15  1  0
 15 16  2  0
 15 17  1  0
 17 18  1  0
 18 19  1  0
 19 20  2  0
 19 21  1  0
 21 22  1  0
 22 23  2  0
 22 24  1  0
 24 25  1  0
 25 26  1  0
 26 27  1  0
 27 28  1  0
  1 29  1  0
  1 30  1  0
  1 31  1  0
  9 32  1  0
  9 33  1  0
 10 34  1  0
 10 35  1  0
 11 36  1  0
 11 37  1  0
 12 38  1  0
 12 39  1  0
 13 40  1  0
 13 41  1  0
 14 42  1  0
 14 43  1  0
 18 44  1  0
 18 45  1  0
 21 46  1  0
 24 47  1  0
 25 48  1  0
 25 49  1  0
 26 50  1  0
 26 51  1  0
 28 52  1  0
 28 53  1  0
 28 54  1  0
M  END
> <Name>
ZINC24232395

> <reference>
BDB50084632

> <quality>
0.718

> <status>
decoy

$$$$
ZINC27239843
  SciTegic06061311253D

 53 54  0  0  1  0            999 V2000
   -2.2451    3.4991    5.6710 C   0  0
   -2.6411    2.0386    5.4448 C   0  0
   -4.0579    1.9689    5.0629 N   0  0
   -4.9220    2.4220    6.1611 C   0  0
   -4.9235    1.3889    7.2582 C   0  0
   -4.3441    0.3348    7.0996 O   0  0
   -5.6251    1.6576    8.5172 C   0  0
   -6.3416    2.8329    8.8481 C   0  0
   -6.8310    2.6593   10.1077 C   0  0
   -6.4385    1.4176   10.5595 N   0  0
   -5.7180    0.8067    9.6076 C   0  0
   -6.7627    0.8517   11.8714 C   0  0
   -7.6386    3.6303   10.8569 C   0  0
   -7.9481    3.4022   12.0113 O   0  0
   -8.0370    4.7741   10.2658 N   0  0
   -8.7375    5.7967   11.0466 C   0  0
   -4.3121    2.7416    3.8398 C   0  0
   -3.5962    2.0974    2.6806 C   0  0
   -2.9390    1.0933    2.8562 O   0  0
   -3.6864    2.6370    1.4489 N   0  0
   -2.9905    2.0106    0.3221 C   0  0  2  0  0  0
   -1.5335    2.5043    0.2837 C   0  0
   -0.9161    2.0810   -1.0797 C   0  0
   -2.3290    2.4231   -2.2118 S   0  0
   -2.2020    3.7424   -2.7241 O   0  0
   -2.4735    1.3340   -3.1129 O   0  0
   -3.7093    2.3833   -0.9970 C   0  0
   -2.8622    3.9272    6.4747 H   0  0
   -2.4029    4.0706    4.7444 H   0  0
   -1.1843    3.5520    5.9570 H   0  0
   -2.0237    1.6115    4.6408 H   0  0
   -2.4833    1.4670    6.3713 H   0  0
   -4.5426    3.3757    6.5568 H   0  0
   -5.9475    2.5616    5.7886 H   0  0
   -6.4774    3.7182    8.2095 H   0  0
   -5.2762   -0.1981    9.6797 H   0  0
   -7.8604    0.9175   11.8997 H   0  0
   -6.3966    1.6225   12.5656 H   0  0
   -6.3724   -0.1554   12.0797 H   0  0
   -7.8490    4.9293    9.2651 H   0  0
   -8.0606    6.0343   11.8805 H   0  0
   -9.6120    5.2831   11.4725 H   0  0
   -9.0162    6.6880   10.4653 H   0  0
   -3.9442    3.7699    3.9713 H   0  0
   -5.3930    2.7621    3.6369 H   0  0
   -4.2446    3.4897    1.2998 H   0  0
   -2.9987    0.9171    0.4416 H   0  0
   -0.9642    2.0450    1.1052 H   0  0
   -1.5115    3.6003    0.3748 H   0  0
   -0.6814    1.0063   -1.0870 H   0  0
   -0.0629    2.7249   -1.3394 H   0  0
   -4.4313    1.6022   -1.2773 H   0  0
   -4.1676    3.3803   -0.9198 H   0  0
  1  2  1  0
  2  3  1  0
  3  4  1  0
  3 17  1  0
  4  5  1  0
  5  6  2  0
  5  7  1  0
  7 11  2  0
  7  8  1  0
  8  9  2  0
  9 10  1  0
  9 13  1  0
 10 11  1  0
 10 12  1  0
 13 14  2  0
 13 15  1  0
 15 16  1  0
 17 18  1  0
 18 19  2  0
 18 20  1  0
 20 21  1  0
 21 27  1  0
 21 22  1  0
 22 23  1  0
 23 24  1  0
 24 25  2  0
 24 26  2  0
 24 27  1  0
  1 28  1  0
  1 29  1  0
  1 30  1  0
  2 31  1  0
  2 32  1  0
  4 33  1  0
  4 34  1  0
  8 35  1  0
 11 36  1  0
 12 37  1  0
 12 38  1  0
 12 39  1  0
 15 40  1  0
 16 41  1  0
 16 42  1  0
 16 43  1  0
 17 44  1  0
 17 45  1  0
 20 46  1  0
 21 47  1  0
 22 48  1  0
 22 49  1  0
 23 50  1  0
 23 51  1  0
 27 52  1  0
 27 53  1  0
M  END
> <Name>
ZINC27239843

> <reference>
BDB50084632

> <quality>
0.715

> <status>
decoy

$$$$
ZINC16245586
  SciTegic06061311253D

 48 50  0  0  1  0            999 V2000
  -11.7046   13.2859   -2.5300 C   0  0
  -12.8339   12.2754   -2.8504 C   0  0
  -12.1156   10.9114   -2.9089 C   0  0
  -10.8320   11.0543   -2.0724 C   0  0  1  0  0  0
  -10.8138   12.5001   -1.5348 C   0  0
  -10.8514   10.1044   -0.9572 N   0  0
   -9.9554    9.1231   -0.6975 C   0  0
  -10.3590    8.5101    0.3941 N   0  0
  -11.4382    9.0461    0.8381 N   0  0
  -11.8039   10.0170    0.0731 N   0  0
   -8.5228    8.7354   -1.6472 S   0  0
   -7.8713    7.3499   -0.6818 C   0  0
   -6.6076    6.8397   -1.3251 C   0  0
   -6.1887    7.3614   -2.3366 O   0  0
   -5.9429    5.8036   -0.7763 N   0  0
   -4.7681    5.3292   -1.3743 N   0  0
   -4.1035    4.2931   -0.8255 C   0  0
   -4.5224    3.7714    0.1860 O   0  0
   -2.8398    3.7829   -1.4688 C   0  0
   -2.2890    2.6117   -0.6528 C   0  0  2  0  0  0
   -1.8757    3.1121    0.7412 C   0  0
   -1.0391    1.9946    1.4299 C   0  0
   -0.0172    1.4168    0.0098 S   0  0
    0.0021   -0.0041    0.0020 O   0  0
    1.2102    2.1328    0.0020 O   0  0
   -1.0641    2.0086   -1.3817 C   0  0
  -12.1210   14.1808   -2.0444 H   0  0
  -11.1387   13.5260   -3.4422 H   0  0
  -13.2848   12.5072   -3.8266 H   0  0
  -13.5814   12.2747   -2.0434 H   0  0
  -11.8568   10.6688   -3.9501 H   0  0
  -12.7587   10.1317   -2.4748 H   0  0
   -9.9380   10.8446   -2.6780 H   0  0
   -9.7878   12.8965   -1.5507 H   0  0
  -11.2510   12.5337   -0.5260 H   0  0
   -8.6170    6.5419   -0.6486 H   0  0
   -7.6507    7.6876    0.3416 H   0  0
   -6.2986    5.3605    0.0828 H   0  0
   -4.4123    5.7723   -2.2334 H   0  0
   -2.0924    4.5893   -1.5018 H   0  0
   -3.0598    3.4447   -2.4921 H   0  0
   -3.0625    1.8371   -0.5449 H   0  0
   -2.7734    3.3234    1.3407 H   0  0
   -1.2655    4.0219    0.6418 H   0  0
   -0.3906    2.4169    2.2116 H   0  0
   -1.6882    1.1790    1.7813 H   0  0
   -1.3683    1.1575   -2.0086 H   0  0
   -0.5290    2.7856   -1.9474 H   0  0
  1  5  1  0
  1  2  1  0
  2  3  1  0
  3  4  1  0
  4  5  1  0
  4  6  1  0
  6 10  1  0
  6  7  1  0
  7  8  2  0
  7 11  1  0
  8  9  1  0
  9 10  2  0
 11 12  1  0
 12 13  1  0
 13 14  2  0
 13 15  1  0
 15 16  1  0
 16 17  1  0
 17 18  2  0
 17 19  1  0
 19 20  1  0
 20 26  1  0
 20 21  1  0
 21 22  1  0
 22 23  1  0
 23 24  2  0
 23 25  2  0
 23 26  1  0
  1 27  1  0
  1 28  1  0
  2 29  1  0
  2 30  1  0
  3 31  1  0
  3 32  1  0
  4 33  1  0
  5 34  1  0
  5 35  1  0
 12 36  1  0
 12 37  1  0
 15 38  1  0
 16 39  1  0
 19 40  1  0
 19 41  1  0
 20 42  1  0
 21 43  1  0
 21 44  1  0
 22 45  1  0
 22 46  1  0
 26 47  1  0
 26 48  1  0
M  END
> <Name>
ZINC16245586

> <reference>
BDB50084632

> <quality>
0.705

> <status>
decoy

$$$$
ZINC27863121
  SciTegic06061311253D

 46 48  0  0  1  0            999 V2000
    2.7218    9.6457    5.9338 C   0  0
    1.8332    8.4657    6.3326 C   0  0
    1.7256    7.4891    5.1598 C   0  0  1  0  0  0
    0.6743    6.4337    5.4406 C   0  0
    0.6703    5.6266    6.3452 O   0  0
   -0.2540    6.5781    4.4744 N   0  0
    0.0576    7.5725    3.6353 C   0  0
   -0.6292    7.8957    2.6861 O   0  0
    1.2160    8.1746    3.9596 N   0  5
   -1.4062    5.7884    4.3656 N   0  0
   -1.4833    4.8365    3.4146 C   0  0
   -0.5554    4.6635    2.6531 O   0  0
   -2.7226    3.9870    3.2976 C   0  0
   -2.5612    3.0433    2.2060 O   0  0
   -3.5886    2.2029    1.9661 C   0  0
   -4.5919    2.2580    2.6511 O   0  0
   -3.4958    1.2236    0.8802 C   0  0
   -4.4476    0.3116    0.5139 C   0  0
   -3.9669   -0.3897   -0.5124 N   0  0
   -2.7661    0.0351   -0.8147 C   0  0
   -2.4291    1.0381    0.0187 N   0  0
   -1.2240    1.7541    0.0174 C   0  0
   -0.0126    1.0758    0.0080 C   0  0
    1.1736    1.7830    0.0004 C   0  0
    1.1554    3.1677    0.0076 C   0  0
   -0.0519    3.8460    0.0224 C   0  0
   -1.2402    3.1423    0.0304 C   0  0
    2.3168    3.8578   -0.0002 F   0  0
    3.0820    6.8412    4.8746 C   0  0
    2.2816   10.1612    5.0675 H   0  0
    3.7246    9.2783    5.6704 H   0  0
    2.7996   10.3483    6.7766 H   0  0
    2.2743    7.9506    7.1987 H   0  0
    0.8304    8.8330    6.5961 H   0  0
   -2.1943    5.9353    5.0124 H   0  0
   -2.8802    3.4368    4.2370 H   0  0
   -3.5923    4.6306    3.0993 H   0  0
   -5.4339    0.1805    0.9829 H   0  0
   -2.1330   -0.3637   -1.6211 H   0  0
    0.0023   -0.0241    0.0066 H   0  0
    2.1336    1.2460   -0.0114 H   0  0
   -0.0644    4.9459    0.0278 H   0  0
   -2.1989    3.6814    0.0471 H   0  0
    3.4178    6.3013    5.7722 H   0  0
    3.8116    7.6277    4.6316 H   0  0
    2.9943    6.1414    4.0305 H   0  0
  1  2  1  0
  2  3  1  0
  3  9  1  0
  3  4  1  0
  3 29  1  0
  4  5  2  0
  4  6  1  0
  6  7  1  0
  6 10  1  0
  7  8  2  0
  7  9  1  0
 10 11  1  0
 11 12  2  0
 11 13  1  0
 13 14  1  0
 14 15  1  0
 15 16  2  0
 15 17  1  0
 17 21  1  0
 17 18  2  0
 18 19  1  0
 19 20  2  0
 20 21  1  0
 21 22  1  0
 22 27  2  0
 22 23  1  0
 23 24  2  0
 24 25  1  0
 25 26  2  0
 25 28  1  0
 26 27  1  0
  1 30  1  0
  1 31  1  0
  1 32  1  0
  2 33  1  0
  2 34  1  0
 10 35  1  0
 13 36  1  0
 13 37  1  0
 18 38  1  0
 20 39  1  0
 23 40  1  0
 24 41  1  0
 26 42  1  0
 27 43  1  0
 29 44  1  0
 29 45  1  0
 29 46  1  0
M  CHG  1   9  -1
M  END
> <Name>
ZINC27863121

> <reference>
BDB50084632

> <quality>
0.699

> <status>
decoy

$$$$
ZINC12030993
  SciTegic06061311253D

 50 51  0  0  1  0            999 V2000
    0.0021   -0.0041    0.0020 C   0  0
    1.3463    2.0098    0.0000 C   0  0
   -0.8017    1.9868   -1.1173 C   0  0
   -2.2716    1.6019   -0.9380 C   0  0
   -3.0880    2.1456   -2.1122 C   0  0
   -4.4955    1.7770   -1.9406 N   0  0
   -5.4070    2.1513   -2.8601 C   0  0
   -5.0613    2.7947   -3.8319 O   0  0
   -6.8260    1.7797   -2.6871 C   0  0
   -7.2260    1.0357   -1.5749 C   0  0
   -8.5529    0.6966   -1.4167 C   0  0
   -9.4882    1.0823   -2.3619 C   0  0
   -9.1013    1.8138   -3.4688 C   0  0
   -7.7746    2.1661   -3.6388 C   0  0
   -7.3966    2.8816   -4.7207 F   0  0
   -9.0589   -0.2368   -0.0105 S   0  0
   -8.0942    0.0617    0.9892 O   0  0
  -10.4258    0.1030    0.1774 O   0  0
   -8.9109   -1.9703   -0.5239 C   0  0  1  0  0  0
   -9.4474   -2.8885    0.5868 C   0  0
   -9.6242   -4.3267    0.0430 C   0  0
   -9.9403   -4.0458   -1.7469 S   0  0
   -8.8911   -4.6382   -2.5002 O   0  0
  -11.2888   -4.3873   -2.0374 O   0  0
   -9.7591   -2.2131   -1.8049 C   0  0
   -0.0305    1.4733    0.0344 N   0  3
    0.5616   -0.3746    0.8736 H   0  0
    0.5020   -0.3366   -0.9197 H   0  0
   -1.0243   -0.3990    0.0278 H   0  0
    1.8443    1.6744   -0.9217 H   0  0
    1.9039    1.6364    0.8716 H   0  0
    1.3173    3.1092    0.0243 H   0  0
   -0.7096    3.0820   -1.1625 H   0  0
   -0.4153    1.5424   -2.0464 H   0  0
   -2.3625    0.5062   -0.9051 H   0  0
   -2.6519    2.0298    0.0013 H   0  0
   -2.9979    3.2414   -2.1454 H   0  0
   -2.7097    1.7179   -3.0524 H   0  0
   -4.7884    1.2318   -1.1173 H   0  0
   -6.4838    0.7209   -0.8266 H   0  0
  -10.5446    0.8051   -2.2312 H   0  0
   -9.8498    2.1164   -4.2159 H   0  0
   -7.8513   -2.1901   -0.7213 H   0  0
   -8.7368   -2.9005    1.4263 H   0  0
  -10.4183   -2.5096    0.9386 H   0  0
  -10.4974   -4.8106    0.5049 H   0  0
   -8.6976   -4.9051    0.1725 H   0  0
   -9.2009   -1.9198   -2.7062 H   0  0
  -10.7461   -1.7355   -1.7169 H   0  0
   -0.4869    1.7789    0.9057 H   0  0
  1 26  1  0
  2 26  1  0
  3  4  1  0
  3 26  1  0
  4  5  1  0
  5  6  1  0
  6  7  1  0
  7  8  2  0
  7  9  1  0
  9 14  2  0
  9 10  1  0
 10 11  2  0
 11 12  1  0
 11 16  1  0
 12 13  2  0
 13 14  1  0
 14 15  1  0
 16 17  2  0
 16 18  2  0
 16 19  1  0
 19 25  1  0
 19 20  1  0
 20 21  1  0
 21 22  1  0
 22 23  2  0
 22 24  2  0
 22 25  1  0
  1 27  1  0
  1 28  1  0
  1 29  1  0
  2 30  1  0
  2 31  1  0
  2 32  1  0
  3 33  1  0
  3 34  1  0
  4 35  1  0
  4 36  1  0
  5 37  1  0
  5 38  1  0
  6 39  1  0
 10 40  1  0
 12 41  1  0
 13 42  1  0
 19 43  1  0
 20 44  1  0
 20 45  1  0
 21 46  1  0
 21 47  1  0
 25 48  1  0
 25 49  1  0
 26 50  1  0
M  CHG  1  26   1
M  END
> <Name>
ZINC12030993

> <reference>
BDB50084632

> <quality>
0.695

> <status>
decoy

$$$$
ZINC04812544
  SciTegic06061311253D

 56 58  0  0  1  0            999 V2000
   -9.4407   13.2259    6.0067 C   0  0
   -8.7593   12.5704    4.9352 O   0  0
   -7.4382   12.3035    5.1153 C   0  0
   -6.8131   12.6659    6.2996 C   0  0
   -5.4704   12.3960    6.4858 C   0  0
   -4.7451   11.7626    5.4898 C   0  0
   -5.3698   11.3977    4.3000 C   0  0
   -6.7158   11.6747    4.1132 C   0  0
   -4.6375   10.7561    3.2898 N   0  0
   -4.5730    9.4087    3.2770 C   0  0
   -5.1395    8.7480    4.1273 O   0  0
   -3.7931    8.7589    2.2089 C   0  0
   -3.6781    7.3831    2.1346 C   0  0
   -2.8332    6.8244    1.2449 N   0  0
   -2.7113    5.3666    1.1661 C   0  0
   -1.6943    4.9976    0.0843 C   0  0
   -0.7906    3.1360   -1.1719 C   0  0
   -0.8067    1.6113   -1.3027 C   0  0
   -0.2120    0.9889   -0.0364 C   0  0
   -1.0132    1.4595    1.1805 C   0  0
   -0.9923    2.9887    1.2385 C   0  0
   -3.1462    9.6393    1.2197 C   0  0
   -2.4898    9.1763    0.3059 O   0  0
   -3.3020   10.9725    1.3546 N   0  0
   -4.0227   11.4958    2.3562 C   0  0
   -4.1239   12.7052    2.4216 O   0  0
   -3.4236   11.4969    5.6741 O   0  0
   -2.8485   11.8993    6.9188 C   0  0
   -1.6001    3.5254    0.0022 N   0  3
   -8.8984   14.1654    6.1892 H   0  0
   -9.3134   12.5854    6.8919 H   0  0
  -10.5032   13.4075    5.7874 H   0  0
   -7.3870   13.1689    7.0918 H   0  0
   -4.9772   12.6844    7.4258 H   0  0
   -7.2097   11.3957    3.1707 H   0  0
   -3.6135    7.6737    2.2108 H   0  0
   -4.2760    6.7444    2.8014 H   0  0
   -2.3727    4.9738    2.1362 H   0  0
   -3.6885    4.9289    0.9142 H   0  0
   -0.7104    5.4151    0.3444 H   0  0
   -2.0249    5.3998   -0.8847 H   0  0
    0.2444    3.4828   -1.0361 H   0  0
   -1.2176    3.5887   -2.0790 H   0  0
   -0.2079    1.3102   -2.1749 H   0  0
   -1.8428    1.2645   -1.4298 H   0  0
   -0.2628   -0.1076   -0.1072 H   0  0
    0.8366    1.3034    0.0712 H   0  0
   -0.5632    1.0519    2.0978 H   0  0
   -2.0526    1.1101    1.0934 H   0  0
    0.0467    3.3406    1.3196 H   0  0
   -1.5688    3.3317    2.1102 H   0  0
   -2.8569   11.6027    0.6722 H   0  0
   -3.4355   11.4029    7.7056 H   0  0
   -3.0199   12.9826    7.0028 H   0  0
   -1.7794   11.6513    6.9935 H   0  0
   -2.5472    3.1338   -0.1010 H   0  0
  1  2  1  0
  2  3  1  0
  3  8  2  0
  3  4  1  0
  4  5  2  0
  5  6  1  0
  6  7  2  0
  6 27  1  0
  7  8  1  0
  7  9  1  0
  9 25  1  0
  9 10  1  0
 10 11  2  0
 10 12  1  0
 12 22  1  0
 12 13  1  0
 13 14  2  0
 14 15  1  0
 15 16  1  0
 16 29  1  0
 17 18  1  0
 17 29  1  0
 18 19  1  0
 19 20  1  0
 20 21  1  0
 21 29  1  0
 22 23  2  0
 22 24  1  0
 24 25  1  0
 25 26  2  0
 27 28  1  0
  1 30  1  0
  1 31  1  0
  1 32  1  0
  4 33  1  0
  5 34  1  0
  8 35  1  0
 12 36  1  0
 13 37  1  0
 15 38  1  0
 15 39  1  0
 16 40  1  0
 16 41  1  0
 17 42  1  0
 17 43  1  0
 18 44  1  0
 18 45  1  0
 19 46  1  0
 19 47  1  0
 20 48  1  0
 20 49  1  0
 21 50  1  0
 21 51  1  0
 24 52  1  0
 28 53  1  0
 28 54  1  0
 28 55  1  0
 29 56  1  0
M  CHG  1  29   1
M  END
> <Name>
ZINC04812544

> <reference>
BDB50084632

> <quality>
0.688

> <status>
decoy

$$$$
ZINC31851937
  SciTegic06061311253D

 44 47  0  0  0  0            999 V2000
    0.1688    3.8480    0.6052 C   0  0
   -1.1254    3.0759    0.6093 C   0  0
   -2.1071    3.5406    1.1492 O   0  0
   -1.1906    1.8666    0.0178 N   0  0
   -2.3609    1.1051    0.1096 C   0  0
   -2.2848   -0.2798    0.1917 C   0  0
   -3.4396   -1.0317    0.2880 C   0  0
   -4.6738   -0.4102    0.2916 C   0  0
   -4.7567    0.9731    0.2041 C   0  0
   -3.5987    1.7316    0.1129 C   0  0
   -6.0095    1.6027    0.2082 N   0  0
   -7.1672    1.1474   -0.3470 C   0  0
   -8.0912    2.0519   -0.1026 N   0  0
   -7.5945    3.0375    0.5533 N   0  0
   -6.3410    2.8433    0.7810 N   0  0
   -7.3865   -0.3660   -1.2221 S   0  0
   -9.1465   -0.2432   -1.6265 C   0  0
   -9.5708   -1.4654   -2.3993 C   0  0
   -8.7629   -2.3339   -2.6519 O   0  0
  -10.8482   -1.5932   -2.8098 N   0  0
  -11.2388   -2.7182   -3.5213 C   0  0
  -10.4748   -3.7265   -3.8604 N   0  0
  -11.1724   -4.5888   -4.5124 N   0  0
  -12.3996   -4.1678   -4.6140 C   0  0
  -12.4745   -2.9790   -3.9860 O   0  0
  -13.5324   -4.8836   -5.3036 C   0  0  2  0  0  0
  -13.2802   -6.3178   -5.7728 C   0  0
  -13.3744   -5.1838   -6.7955 C   0  0
    0.4016    4.0362    1.6637 H   0  0
   -0.0682    4.8156    0.1387 H   0  0
    0.9847    3.3239    0.0860 H   0  0
   -0.3790    1.5030   -0.5018 H   0  0
   -1.3041   -0.7779    0.1800 H   0  0
   -3.3766   -2.1274    0.3620 H   0  0
   -5.5917   -1.0120    0.3639 H   0  0
   -3.6618    2.8276    0.0433 H   0  0
   -9.3217    0.6549   -2.2370 H   0  0
   -9.7323   -0.1755   -0.6979 H   0  0
  -11.5344   -0.8556   -2.5952 H   0  0
  -14.2969   -4.3898   -4.6857 H   0  0
  -14.2020   -6.9177   -5.7509 H   0  0
  -12.2365   -6.6202   -5.6018 H   0  0
  -12.3803   -4.8899   -7.1634 H   0  0
  -14.3460   -5.1864   -7.3112 H   0  0
  1  2  1  0
  2  3  2  0
  2  4  1  0
  4  5  1  0
  5 10  2  0
  5  6  1  0
  6  7  2  0
  7  8  1  0
  8  9  2  0
  9 10  1  0
  9 11  1  0
 11 15  1  0
 11 12  1  0
 12 13  2  0
 12 16  1  0
 13 14  1  0
 14 15  2  0
 16 17  1  0
 17 18  1  0
 18 19  2  0
 18 20  1  0
 20 21  1  0
 21 25  1  0
 21 22  2  0
 22 23  1  0
 23 24  2  0
 24 25  1  0
 24 26  1  0
 26 28  1  0
 26 27  1  0
 27 28  1  0
  1 29  1  0
  1 30  1  0
  1 31  1  0
  4 32  1  0
  6 33  1  0
  7 34  1  0
  8 35  1  0
 10 36  1  0
 17 37  1  0
 17 38  1  0
 20 39  1  0
 26 40  1  0
 27 41  1  0
 27 42  1  0
 28 43  1  0
 28 44  1  0
M  END
> <Name>
ZINC31851937

> <reference>
BDB50084632

> <quality>
0.680

> <status>
decoy

$$$$
ZINC16766443
  SciTegic06061311253D

 48 50  0  0  1  0            999 V2000
    4.8004    3.9411   -0.0235 C   0  0
    3.5300    3.4029   -0.0134 C   0  0
    2.4238    4.2334    0.0017 C   0  0
    2.5829    5.6080    0.0017 C   0  0
    3.8474    6.1590   -0.0025 C   0  0
    4.9680    5.3266   -0.0181 C   0  0
    6.3263    5.9102   -0.0285 C   0  0
    6.4692    7.1173   -0.0238 O   0  0
    7.4062    5.1039   -0.0431 N   0  0
    1.3936    6.4891    0.0122 N   0  0
    1.5321    7.6992    0.0123 O   0  0
    0.2764    6.0040    0.0207 O   0  0
    1.0392    3.6385    0.0117 C   0  0
    1.1348    2.1897    0.0030 O   0  0
   -0.0184    1.5028    0.0103 C   0  0
   -1.0728    2.0926    0.0185 O   0  0
    0.0021   -0.0041    0.0020 C   0  0
   -1.4333   -0.5336    0.0129 C   0  0
   -1.4134   -1.9985    0.0048 N   0  0
   -1.3926   -2.7421    1.1336 C   0  0
   -1.5517   -2.3462    2.2683 O   0  0
   -1.1330   -4.1570    0.7010 C   0  0  1  0  0  0
   -1.6238   -5.2405    1.6035 C   0  0
   -3.0510   -5.6209    1.3659 C   0  0
   -3.7298   -5.2227    0.3419 C   0  0
   -3.2202   -4.3016   -0.7119 C   0  0
   -1.6937   -4.1864   -0.7302 C   0  0  1  0  0  0
   -1.4200   -2.7274   -1.1279 C   0  0
   -1.2413   -2.3109   -2.2522 O   0  0
    5.6792    3.2796   -0.0358 H   0  0
    3.3965    2.3110   -0.0174 H   0  0
    3.9726    7.2518    0.0064 H   0  0
    7.2851    4.0810   -0.0470 H   0  0
    8.3525    5.5105   -0.0503 H   0  0
    0.5063    3.9648    0.9170 H   0  0
    0.4882    3.9742   -0.8792 H   0  0
    0.5164   -0.3590   -0.9033 H   0  0
    0.5337   -0.3696    0.8929 H   0  0
   -1.9481   -0.1794    0.9182 H   0  0
   -1.9662   -0.1699   -0.8780 H   0  0
   -0.0614   -4.4008    0.7486 H   0  0
   -1.5136   -4.9119    2.6475 H   0  0
   -0.9920   -6.1305    1.4666 H   0  0
   -3.5472   -6.2725    2.1002 H   0  0
   -4.7612   -5.5913    0.2404 H   0  0
   -3.5623   -4.6601   -1.6939 H   0  0
   -3.6509   -3.3022   -0.5512 H   0  0
   -1.2819   -4.9962   -1.3504 H   0  0
  1  6  2  0
  1  2  1  0
  2  3  2  0
  3  4  1  0
  3 13  1  0
  4  5  2  0
  4 10  1  0
  5  6  1  0
  6  7  1  0
  7  8  2  0
  7  9  1  0
 10 11  2  0
 10 12  2  0
 13 14  1  0
 14 15  1  0
 15 16  2  0
 15 17  1  0
 17 18  1  0
 18 19  1  0
 19 28  1  0
 19 20  1  0
 20 21  2  0
 20 22  1  0
 22 27  1  0
 22 23  1  0
 23 24  1  0
 24 25  2  0
 25 26  1  0
 26 27  1  0
 27 28  1  0
 28 29  2  0
  1 30  1  0
  2 31  1  0
  5 32  1  0
  9 33  1  0
  9 34  1  0
 13 35  1  0
 13 36  1  0
 17 37  1  0
 17 38  1  0
 18 39  1  0
 18 40  1  0
 22 41  1  0
 23 42  1  0
 23 43  1  0
 24 44  1  0
 25 45  1  0
 26 46  1  0
 26 47  1  0
 27 48  1  0
M  END
> <Name>
ZINC16766443

> <reference>
BDB50084632

> <quality>
0.677

> <status>
decoy

$$$$
ZINC26081411
  SciTegic06061311253D

 43 44  0  0  1  0            999 V2000
   -7.1000   -0.2352    5.5821 C   0  0
   -5.6590   -0.7287    5.7261 C   0  0  2  0  0  0
   -5.3198   -0.8689    7.1877 C   0  0
   -4.4680   -0.1617    7.6832 O   0  0
   -5.9628   -1.7803    7.9444 N   0  0
   -5.5868   -1.9726    9.2791 C   0  0
   -5.1385   -0.9023   10.0479 C   0  0
   -4.7775   -1.1423   11.3640 C   0  0
   -4.8732   -2.4260   11.8675 C   0  0
   -5.3023   -3.4196   11.1137 N   0  0
   -5.6609   -3.2342    9.8580 C   0  0
   -6.2249   -4.5798    8.9174 Cl  0  0
   -4.7563    0.2266    5.1092 O   0  0
   -4.4713    0.0448    3.8033 C   0  0
   -4.9644   -0.8873    3.1973 O   0  0
   -3.5679    0.9701    3.1151 C   0  0
   -3.1940    0.9102    1.7881 C   0  0
   -2.3237    1.9804    1.5608 C   0  0
   -2.1930    2.6635    2.7235 C   0  0
   -2.9411    2.0622    3.6724 N   0  0
   -3.0663    2.4996    5.0649 C   0  0
   -1.5418    2.3753    0.0319 S   0  0
   -1.2394    3.7630    0.0769 O   0  0
   -2.3420    1.8028   -0.9933 O   0  0
   -0.0919    1.5757    0.0027 N   0  0
   -0.0634    0.1112   -0.0202 C   0  0
   -7.2055    0.7412    6.0775 H   0  0
   -7.7848   -0.9585    6.0489 H   0  0
   -7.3483   -0.1326    4.5154 H   0  0
   -5.5545   -1.7050    5.2301 H   0  0
   -6.7308   -2.3353    7.5406 H   0  0
   -5.0724    0.1094    9.6211 H   0  0
   -4.4188   -0.3204   12.0010 H   0  0
   -4.5875   -2.6217   12.9116 H   0  0
   -3.5190    0.1625    1.0496 H   0  0
   -1.5768    3.5628    2.8704 H   0  0
   -2.7874    1.5961    5.6269 H   0  0
   -4.1544    2.6051    5.1870 H   0  0
   -2.4968    3.3960    5.3514 H   0  0
    0.7899    2.1081    0.0006 H   0  0
   -0.6663   -0.1619   -0.8988 H   0  0
   -0.6458   -0.1891    0.8634 H   0  0
    0.9424   -0.3338   -0.0388 H   0  0
  1  2  1  0
  2  3  1  0
  2 13  1  0
  3  4  2  0
  3  5  1  0
  5  6  1  0
  6 11  2  0
  6  7  1  0
  7  8  2  0
  8  9  1  0
  9 10  2  0
 10 11  1  0
 11 12  1  0
 13 14  1  0
 14 15  2  0
 14 16  1  0
 16 20  1  0
 16 17  2  0
 17 18  1  0
 18 19  2  0
 18 22  1  0
 19 20  1  0
 20 21  1  0
 22 23  2  0
 22 24  2  0
 22 25  1  0
 25 26  1  0
  1 27  1  0
  1 28  1  0
  1 29  1  0
  2 30  1  0
  5 31  1  0
  7 32  1  0
  8 33  1  0
  9 34  1  0
 17 35  1  0
 19 36  1  0
 21 37  1  0
 21 38  1  0
 21 39  1  0
 25 40  1  0
 26 41  1  0
 26 42  1  0
 26 43  1  0
M  END
> <Name>
ZINC26081411

> <reference>
BDB50084632

> <quality>
0.674

> <status>
decoy

$$$$
ZINC22731465
  SciTegic06061311253D

 42 44  0  0  0  0            999 V2000
   -3.5609    3.9269   -2.4054 C   0  0
   -4.6776    3.1392   -2.6424 C   0  0
   -4.4929    1.8684   -3.1799 C   0  0
   -3.2077    1.4364   -3.4635 C   0  0
   -2.1637    2.2162   -3.2183 N   0  3
   -2.3088    3.4317   -2.7071 C   0  0
   -0.8991    1.7554   -3.5063 C   0  0
    0.0269    1.5747   -2.4808 C   0  0
   -0.3570    1.7316   -1.1766 N   0  0
    0.6165    1.5416   -0.0985 C   0  0
   -0.0550    1.7710    1.2310 C   0  0
   -0.6677    0.8327    1.9751 C   0  0
   -1.1533    1.4815    3.1336 C   0  0
   -0.8084    2.7773    3.0282 C   0  0
   -0.1383    2.9458    1.8765 O   0  0
    1.6921    1.1440   -2.8632 S   0  5
   -0.5409    1.4665   -4.8380 C   0  0
   -0.3227    0.3150   -5.1746 O   0  0
   -0.4295    2.5607   -5.8283 C   0  0
   -0.5633    3.8891   -5.4227 C   0  0
   -0.4536    4.9047   -6.3500 C   0  0
   -0.2224    4.6078   -7.6815 C   0  0
   -0.0936    3.2925   -8.0908 C   0  0
   -0.1960    2.2680   -7.1725 C   0  0
   -0.1120    5.7021   -8.6721 N   0  0
    0.0918    5.4437   -9.8448 O   0  0
   -0.2250    6.8610   -8.3146 O   0  0
   -5.5600    1.0639   -3.4277 O   0  5
   -3.6722    4.9358   -1.9814 H   0  0
   -5.6868    3.5104   -2.4108 H   0  0
   -3.0518    0.4371   -3.8961 H   0  0
   -1.4199    4.0525   -2.5214 H   0  0
   -1.3304    1.9833   -0.9530 H   0  0
    1.0110    0.5155   -0.1372 H   0  0
    1.4432    2.2571   -0.2192 H   0  0
   -0.7711   -0.2345    1.7294 H   0  0
   -1.7070    1.0159    3.9622 H   0  0
   -1.0365    3.5653    3.7610 H   0  0
   -0.7558    4.1260   -4.3659 H   0  0
   -0.5501    5.9527   -6.0301 H   0  0
    0.0908    3.0631   -9.1507 H   0  0
   -0.0938    1.2226   -7.4993 H   0  0
  1  6  2  0
  1  2  1  0
  2  3  2  0
  3  4  1  0
  3 28  1  0
  4  5  2  0
  5  6  1  0
  5  7  1  0
  7  8  2  0
  7 17  1  0
  8  9  1  0
  8 16  1  0
  9 10  1  0
 10 11  1  0
 11 15  1  0
 11 12  2  0
 12 13  1  0
 13 14  2  0
 14 15  1  0
 17 18  2  0
 17 19  1  0
 19 24  2  0
 19 20  1  0
 20 21  2  0
 21 22  1  0
 22 23  2  0
 22 25  1  0
 23 24  1  0
 25 26  2  0
 25 27  2  0
  1 29  1  0
  2 30  1  0
  4 31  1  0
  6 32  1  0
  9 33  1  0
 10 34  1  0
 10 35  1  0
 12 36  1  0
 13 37  1  0
 14 38  1  0
 20 39  1  0
 21 40  1  0
 23 41  1  0
 24 42  1  0
M  CHG  3   5   1  16  -1  28  -1
M  END
> <Name>
ZINC22731465

> <reference>
BDB50084632

> <quality>
0.672

> <status>
decoy

$$$$
ZINC23509594
  SciTegic06061311253D

 60 62  0  0  1  0            999 V2000
   11.4194    4.0949   -7.8333 C   0  0
   11.9391    2.8936   -7.0410 C   0  0  1  0  0  0
   11.5109    3.0229   -5.5768 C   0  0
   10.0433    2.9892   -5.4961 N   0  3
    9.5188    1.7398   -6.0663 C   0  0
    9.9671    1.6233   -7.5255 C   0  0  1  0  0  0
   11.3944    1.6894   -7.5872 O   0  0
    9.4921    0.2880   -8.1018 C   0  0
    9.5880    3.1677   -4.1109 C   0  0
    8.0724    3.3765   -4.0951 C   0  0
    7.5982    3.5623   -2.6523 C   0  0
    6.1470    3.7622   -2.6372 N   0  0
    5.5046    3.9483   -1.4671 C   0  0
    6.1279    3.9502   -0.4267 O   0  0
    4.0118    4.1539   -1.4515 C   0  0
    3.5376    4.3398   -0.0088 C   0  0
    2.0864    4.5397    0.0064 N   0  0
    1.4402    5.7219    0.0186 C   0  0
    0.1475    5.5183    0.0294 N   0  0
   -0.1041    4.2068    0.0247 C   0  0
    1.1213    3.5525    0.0100 C   0  0
    1.1474    2.1412    0.0026 C   0  0
    2.2092    1.5446   -0.0107 O   0  0
   -0.0178    1.4608    0.0101 N   0  0
   -1.1965    2.1068    0.0192 C   0  0
   -2.2265    1.4605    0.0206 O   0  0
   -1.2655    3.4514    0.0318 N   0  0
   -2.5706    4.1166    0.0468 C   0  0
    0.0021   -0.0041    0.0020 C   0  0
   10.3217    4.1287   -7.7714 H   0  0
   11.7238    4.0001   -8.8861 H   0  0
   11.8382    5.0213   -7.4134 H   0  0
   13.0369    2.8634   -7.1031 H   0  0
   11.8786    3.9757   -5.1683 H   0  0
   11.9294    2.1873   -4.9966 H   0  0
    9.6746    3.7737   -6.0524 H   0  0
    8.4198    1.7466   -6.0201 H   0  0
    9.9062    0.8838   -5.4943 H   0  0
    9.5337    2.4474   -8.1112 H   0  0
    8.3945    0.2358   -8.0508 H   0  0
    9.9250   -0.5383   -7.5188 H   0  0
    9.8142    0.2043   -9.1502 H   0  0
    9.8404    2.2725   -3.5236 H   0  0
   10.0830    4.0462   -3.6714 H   0  0
    7.8193    4.2719   -4.6818 H   0  0
    7.5756    2.4984   -4.5333 H   0  0
    7.8506    2.6671   -2.0651 H   0  0
    8.0932    4.4408   -2.2127 H   0  0
    5.6177    3.7605   -3.5208 H   0  0
    3.7587    5.0492   -2.0383 H   0  0
    3.5150    3.2757   -1.8897 H   0  0
    4.0326    5.2183    0.4307 H   0  0
    3.7901    3.4446    0.5785 H   0  0
    1.9258    6.7089    0.0194 H   0  0
   -2.5662    4.7737   -0.8354 H   0  0
   -2.5501    4.7655    0.9348 H   0  0
   -3.4258    3.4248    0.0514 H   0  0
    0.5977   -0.2914    0.8811 H   0  0
    0.5807   -0.2818   -0.8914 H   0  0
   -0.9991   -0.4598    0.0091 H   0  0
  1  2  1  0
  2  7  1  0
  2  3  1  0
  3  4  1  0
  4  5  1  0
  4  9  1  0
  5  6  1  0
  6  7  1  0
  6  8  1  0
  9 10  1  0
 10 11  1  0
 11 12  1  0
 12 13  1  0
 13 14  2  0
 13 15  1  0
 15 16  1  0
 16 17  1  0
 17 21  1  0
 17 18  1  0
 18 19  2  0
 19 20  1  0
 20 27  1  0
 20 21  2  0
 21 22  1  0
 22 23  2  0
 22 24  1  0
 24 25  1  0
 24 29  1  0
 25 26  2  0
 25 27  1  0
 27 28  1  0
  1 30  1  0
  1 31  1  0
  1 32  1  0
  2 33  1  0
  3 34  1  0
  3 35  1  0
  4 36  1  0
  5 37  1  0
  5 38  1  0
  6 39  1  0
  8 40  1  0
  8 41  1  0
  8 42  1  0
  9 43  1  0
  9 44  1  0
 10 45  1  0
 10 46  1  0
 11 47  1  0
 11 48  1  0
 12 49  1  0
 15 50  1  0
 15 51  1  0
 16 52  1  0
 16 53  1  0
 18 54  1  0
 28 55  1  0
 28 56  1  0
 28 57  1  0
 29 58  1  0
 29 59  1  0
 29 60  1  0
M  CHG  1   4   1
M  END
> <Name>
ZINC23509594

> <reference>
BDB50084632

> <quality>
0.671

> <status>
decoy

$$$$
ZINC29722367
  SciTegic06061311253D

 55 58  0  0  1  0            999 V2000
   -1.3606   -4.6300   -0.2635 C   0  0
   -0.5306   -3.8349    0.7112 C   0  0
   -0.4211   -2.4547    0.5616 C   0  0
    0.3436   -1.7414    1.4645 C   0  0
    0.9706   -2.4174    2.4711 N   0  0
    0.8296   -3.7722    2.5808 C   0  0
    0.0858   -4.4496    1.6988 N   0  0
    1.5343   -4.1550    3.6400 N   0  0
    2.1192   -3.1003    4.1944 C   0  0
    1.8023   -2.0188    3.5252 N   0  0
    0.4753   -0.3755    1.3479 N   0  0
   -0.2792    0.1296    0.1923 C   0  0
   -0.1725    1.6556    0.1443 C   0  0
    1.2425    2.0426    0.0558 N   0  0
    1.9969    1.5375    1.2113 C   0  0
    1.8902    0.0115    1.2593 C   0  0
    1.3830    3.4996   -0.0686 C   0  0
    0.7936    3.9566   -1.4046 C   0  0  1  0  0  0
    0.9302    5.4754   -1.5294 C   0  0
    0.2771    5.9160   -2.7216 O   0  0
    0.3054    7.2499   -2.9841 C   0  0
    0.9438    8.1156   -2.1084 C   0  0
    0.9763    9.4701   -2.3773 C   0  0
    0.3623    9.9656   -3.5180 C   0  0
   -0.2802    9.1005   -4.3912 C   0  0
   -0.3090    7.7455   -4.1245 C   0  0
    0.3907   11.2996   -3.7805 O   0  0
    1.0700   12.1319   -2.8382 C   0  0
    1.4972    3.3254   -2.4764 O   0  0
   -2.1026   -5.1600    0.3518 H   0  0
   -0.6770   -5.3854   -0.6783 H   0  0
   -1.8287   -4.0146   -1.0460 H   0  0
   -0.9358   -1.9401   -0.2632 H   0  0
    2.7705   -3.1295    5.0804 H   0  0
   -1.3359   -0.1608    0.2872 H   0  0
    0.1373   -0.2961   -0.7326 H   0  0
   -0.7116    2.0337   -0.7368 H   0  0
   -0.6130    2.0842    1.0566 H   0  0
    3.0535    1.8280    1.1153 H   0  0
    1.5813    1.9629    2.1367 H   0  0
    2.4299   -0.3660    2.1404 H   0  0
    2.3321   -0.4153    0.3469 H   0  0
    2.4481    3.7713   -0.0265 H   0  0
    0.8461    3.9916    0.7558 H   0  0
   -0.2698    3.6791   -1.4503 H   0  0
    0.4652    5.9584   -0.6573 H   0  0
    1.9954    5.7464   -1.5741 H   0  0
    1.4242    7.7235   -1.1998 H   0  0
    1.4891   10.1558   -1.6868 H   0  0
   -0.7668    9.4934   -5.2961 H   0  0
   -0.8192    7.0595   -4.8166 H   0  0
    2.0992   11.7491   -2.7730 H   0  0
    0.5838   11.9597   -1.8666 H   0  0
    1.0504   13.1955   -3.1182 H   0  0
    1.4092    2.3425   -2.3966 H   0  0
  1  2  1  0
  2  7  2  0
  2  3  1  0
  3  4  2  0
  4  5  1  0
  4 11  1  0
  5 10  1  0
  5  6  1  0
  6  7  1  0
  6  8  2  0
  8  9  1  0
  9 10  2  0
 11 16  1  0
 11 12  1  0
 12 13  1  0
 13 14  1  0
 14 15  1  0
 14 17  1  0
 15 16  1  0
 17 18  1  0
 18 19  1  0
 18 29  1  0
 19 20  1  0
 20 21  1  0
 21 26  2  0
 21 22  1  0
 22 23  2  0
 23 24  1  0
 24 25  2  0
 24 27  1  0
 25 26  1  0
 27 28  1  0
  1 30  1  0
  1 31  1  0
  1 32  1  0
  3 33  1  0
  9 34  1  0
 12 35  1  0
 12 36  1  0
 13 37  1  0
 13 38  1  0
 15 39  1  0
 15 40  1  0
 16 41  1  0
 16 42  1  0
 17 43  1  0
 17 44  1  0
 18 45  1  0
 19 46  1  0
 19 47  1  0
 22 48  1  0
 23 49  1  0
 25 50  1  0
 26 51  1  0
 28 52  1  0
 28 53  1  0
 28 54  1  0
 29 55  1  0
M  END
> <Name>
ZINC29722367

> <reference>
BDB50084632

> <quality>
0.670

> <status>
decoy

$$$$
ZINC26261656
  SciTegic06061311253D

 46 47  0  0  0  0            999 V2000
   -1.8183   -2.6087    3.4540 C   0  0
   -1.8331   -1.1049    3.3578 C   0  0
   -2.6463   -0.3689    4.2315 C   0  0
   -2.6576    1.0237    4.1397 C   0  0
   -1.8492    1.6223    3.1712 C   0  0
   -1.5930    3.0033    2.7735 C   0  0
   -0.7349    2.9779    1.7945 N   0  0
   -0.3854    1.6578    1.4951 N   0  0
   -1.0632    0.8112    2.3259 C   0  0
   -1.0852   -0.5115    2.4582 N   0  0
    0.5554    1.2466    0.4502 C   0  0  2  0  0  0
    1.9298    1.8567    0.7325 C   0  0
    0.0513    1.7328   -0.9101 C   0  0
   -3.4793   -1.0581    5.2357 C   0  0
   -3.5522   -2.2708    5.2355 O   0  0
   -4.1591   -0.3426    6.1529 O   0  0
   -4.9581   -1.0870    7.1098 C   0  0
   -5.6407   -0.1264    8.0492 C   0  0
   -5.4705    1.0674    7.9246 O   0  0
   -6.4403   -0.5946    9.0280 N   0  0
   -7.0507    0.2644    9.8682 C   0  0
   -6.8801    1.4612    9.7432 O   0  0
   -7.8503   -0.2038   10.8469 N   0  0
   -8.5139    0.7299   11.7601 C   0  0
   -9.3559   -0.0544   12.7685 C   0  0  1  0  0  0
   -8.5279   -0.9129   13.4997 F   0  0
   -9.9895    0.8372   13.6406 F   0  0
  -10.3201   -0.8049   12.0871 F   0  0
   -0.7660   -2.8823    3.6209 H   0  0
   -2.1000   -2.9701    2.4540 H   0  0
   -2.4801   -3.0014    4.2400 H   0  0
   -3.2840    1.6310    4.8096 H   0  0
   -2.0432    3.9022    3.2199 H   0  0
    0.6361    0.1496    0.4406 H   0  0
    2.2933    1.5075    1.7102 H   0  0
    1.8501    2.9538    0.7421 H   0  0
    2.6367    1.5483   -0.0518 H   0  0
   -0.0296    2.8298   -0.9016 H   0  0
   -0.9367    1.2945   -1.1142 H   0  0
    0.7573    1.4243   -1.6952 H   0  0
   -4.3079   -1.7621    7.6856 H   0  0
   -5.7167   -1.6767    6.5743 H   0  0
   -6.5849   -1.6089    9.1339 H   0  0
   -7.9948   -1.2181   10.9528 H   0  0
   -9.1655    1.4052   11.1861 H   0  0
   -7.7559    1.3197   12.2963 H   0  0
  1  2  1  0
  2 10  1  0
  2  3  2  0
  3  4  1  0
  3 14  1  0
  4  5  2  0
  5  9  1  0
  5  6  1  0
  6  7  2  0
  7  8  1  0
  8  9  1  0
  8 11  1  0
  9 10  2  0
 11 12  1  0
 11 13  1  0
 14 15  2  0
 14 16  1  0
 16 17  1  0
 17 18  1  0
 18 19  2  0
 18 20  1  0
 20 21  1  0
 21 22  2  0
 21 23  1  0
 23 24  1  0
 24 25  1  0
 25 26  1  0
 25 27  1  0
 25 28  1  0
  1 29  1  0
  1 30  1  0
  1 31  1  0
  4 32  1  0
  6 33  1  0
 11 34  1  0
 12 35  1  0
 12 36  1  0
 12 37  1  0
 13 38  1  0
 13 39  1  0
 13 40  1  0
 17 41  1  0
 17 42  1  0
 20 43  1  0
 23 44  1  0
 24 45  1  0
 24 46  1  0
M  END
> <Name>
ZINC26261656

> <reference>
BDB50084632

> <quality>
0.669

> <status>
decoy

$$$$
ZINC02120997
  SciTegic06061311253D

 52 53  0  0  1  0            999 V2000
    9.1648   -3.5001   -5.1927 C   0  0
    9.5850   -2.2299   -4.4991 C   0  0
   10.8949   -1.8034   -4.5913 C   0  0
   11.2928   -0.6350   -3.9576 C   0  0
   10.3521    0.1083   -3.2222 C   0  0
   10.7820    1.3392   -2.5575 C   0  0
   12.0824    1.7137   -2.6790 C   0  0
   12.9724    0.9210   -3.4323 C   0  0
   14.1353    1.2681   -3.5342 O   0  0
   12.5710   -0.2066   -4.0397 O   0  0
    9.8091    2.1682   -1.7591 C   0  0
    9.0235   -0.3356   -3.1348 C   0  0
    8.6543   -1.5075   -3.7712 C   0  0
    8.1097    0.3758   -2.4274 O   0  0
    6.7777   -0.1399   -2.3848 C   0  0
    5.9105    0.7760   -1.5601 C   0  0
    6.3863    1.7723   -1.0582 O   0  0
    4.6063    0.4880   -1.3802 N   0  0
    3.7632    1.3784   -0.5785 C   0  0
    2.3585    0.8345   -0.5336 C   0  0
    2.0882   -0.1955   -1.1141 O   0  0
    1.4027    1.4926    0.1516 N   0  0
    0.0371    0.9639    0.1953 C   0  0  1  0  0  0
   -0.6660    1.4707    1.4562 C   0  0  2  0  0  0
   -2.0466    0.8206    1.5665 C   0  0
   -0.8227    2.9906    1.3767 C   0  0
   -0.7201    1.4270   -1.0226 C   0  0
   -0.1750    2.1269   -1.8429 O   0  0
   -2.0001    1.0620   -1.1961 O   0  5
    8.3328   -3.2083   -5.8504 H   0  0
    8.7463   -4.1372   -4.3997 H   0  0
    9.9796   -3.9947   -5.7417 H   0  0
   11.6243   -2.3909   -5.1682 H   0  0
   12.4398    2.6326   -2.1911 H   0  0
    9.3987    1.4698   -1.0149 H   0  0
    8.9959    2.3935   -2.4648 H   0  0
   10.2428    3.0711   -1.3044 H   0  0
    7.6172   -1.8668   -3.6986 H   0  0
    6.7857   -1.1423   -1.9318 H   0  0
    6.3758   -0.2026   -3.4068 H   0  0
    4.2022   -0.3582   -1.8064 H   0  0
    3.7530    2.3811   -1.0307 H   0  0
    4.1643    1.4413    0.4438 H   0  0
    1.6323    2.3673    0.6446 H   0  0
    0.0699   -0.1355    0.2106 H   0  0
   -0.0662    1.2097    2.3406 H   0  0
   -1.9349   -0.2722    1.6240 H   0  0
   -2.6474    1.0812    0.6827 H   0  0
   -2.5527    1.1845    2.4728 H   0  0
   -1.4227    3.2527    0.4928 H   0  0
    0.1695    3.4589    1.2977 H   0  0
   -1.3281    3.3557    2.2829 H   0  0
  1  2  1  0
  2 13  2  0
  2  3  1  0
  3  4  2  0
  4 10  1  0
  4  5  1  0
  5  6  1  0
  5 12  2  0
  6  7  2  0
  6 11  1  0
  7  8  1  0
  8  9  2  0
  8 10  1  0
 12 13  1  0
 12 14  1  0
 14 15  1  0
 15 16  1  0
 16 17  2  0
 16 18  1  0
 18 19  1  0
 19 20  1  0
 20 21  2  0
 20 22  1  0
 22 23  1  0
 23 24  1  0
 23 27  1  0
 24 25  1  0
 24 26  1  0
 27 28  2  0
 27 29  1  0
  1 30  1  0
  1 31  1  0
  1 32  1  0
  3 33  1  0
  7 34  1  0
 11 35  1  0
 11 36  1  0
 11 37  1  0
 13 38  1  0
 15 39  1  0
 15 40  1  0
 18 41  1  0
 19 42  1  0
 19 43  1  0
 22 44  1  0
 23 45  1  0
 24 46  1  0
 25 47  1  0
 25 48  1  0
 25 49  1  0
 26 50  1  0
 26 51  1  0
 26 52  1  0
M  CHG  1  29  -1
M  END
> <Name>
ZINC02120997

> <reference>
BDB50084632

> <quality>
0.666

> <status>
decoy

$$$$
ZINC03360068
  SciTegic06061311253D

 46 47  0  0  0  0            999 V2000
   12.2041    0.5048    0.0633 C   0  0
   11.0085    1.3481   -0.0118 N   0  0
    9.7744    0.7638    0.0178 C   0  0
    8.6333    1.5809   -0.0607 C   0  0
    8.8339    3.0324   -0.1590 C   0  0
    7.8820    3.7880   -0.2251 O   0  0
   10.0951    3.5107   -0.1750 N   0  0
   11.1478    2.6800   -0.1026 C   0  0
   12.2679    3.1515   -0.1205 O   0  0
   10.3194    4.9552   -0.2719 C   0  0
    7.3365    1.0246   -0.0399 C   0  0
    7.1925   -0.1812   -0.0608 O   0  0
    6.1303    1.9268    0.0082 C   0  0
    4.9229    1.1203    0.0217 O   0  0
    3.7525    1.7761    0.0640 C   0  0
    3.7374    2.9840    0.0888 O   0  0
    2.4574    1.0058    0.0804 C   0  0
    1.2824    1.9846    0.1293 C   0  0
   -0.0127    1.2143    0.1457 C   0  0
    0.0025    0.0020    0.1208 O   0  0
   -1.2954    1.9331    0.1859 C   0  0
   -1.3167    3.3315    0.2205 C   0  0
   -2.5224    3.9983    0.2522 C   0  0
   -3.7114    3.2868    0.2614 C   0  0
   -3.6979    1.9015    0.2331 C   0  0
   -2.4998    1.2214    0.1954 C   0  0
   -5.2253    4.1351    0.3082 Cl  0  0
    9.6516   -0.5877    0.1161 N   0  0
   12.7665    0.8725    0.9342 H   0  0
   12.7908    0.7493   -0.8345 H   0  0
   11.9811   -0.5700    0.1351 H   0  0
    9.7751    5.3908    0.5790 H   0  0
    9.7991    5.2685   -1.1890 H   0  0
   11.3823    5.2386   -0.2771 H   0  0
    6.1692    2.5430    0.9186 H   0  0
    6.1241    2.5801   -0.8768 H   0  0
    2.3845    0.3914   -0.8291 H   0  0
    2.4281    0.3544    0.9663 H   0  0
    1.3094    2.6362   -0.7565 H   0  0
    1.3545    2.5991    1.0388 H   0  0
   -0.3734    3.8974    0.2224 H   0  0
   -2.5409    5.0980    0.2702 H   0  0
   -4.6457    1.3433    0.2407 H   0  0
   -2.4906    0.1217    0.1728 H   0  0
   10.4974   -1.1731    0.1685 H   0  0
    8.7188   -1.0240    0.1381 H   0  0
  1  2  1  0
  2  8  1  0
  2  3  1  0
  3  4  2  0
  3 28  1  0
  4  5  1  0
  4 11  1  0
  5  6  2  0
  5  7  1  0
  7  8  1  0
  7 10  1  0
  8  9  2  0
 11 12  2  0
 11 13  1  0
 13 14  1  0
 14 15  1  0
 15 16  2  0
 15 17  1  0
 17 18  1  0
 18 19  1  0
 19 20  2  0
 19 21  1  0
 21 26  2  0
 21 22  1  0
 22 23  2  0
 23 24  1  0
 24 25  2  0
 24 27  1  0
 25 26  1  0
  1 29  1  0
  1 30  1  0
  1 31  1  0
 10 32  1  0
 10 33  1  0
 10 34  1  0
 13 35  1  0
 13 36  1  0
 17 37  1  0
 17 38  1  0
 18 39  1  0
 18 40  1  0
 22 41  1  0
 23 42  1  0
 25 43  1  0
 26 44  1  0
 28 45  1  0
 28 46  1  0
M  END
> <Name>
ZINC03360068

> <reference>
BDB50084632

> <quality>
0.663

> <status>
decoy

$$$$
ZINC30646201
  SciTegic06061311253D

 55 57  0  0  1  0            999 V2000
    4.0439  -10.7000   -4.9141 C   0  0
    2.3991  -10.6892   -4.1491 S   0  0
    2.4208   -9.9227   -2.9528 O   0  0
    1.8452  -11.9978   -4.1610 O   0  0
    1.4507   -9.8193   -5.1912 N   0  0
    0.7773  -10.3531   -6.3891 C   0  0
    0.5746   -9.1245   -7.3106 C   0  0
    0.2516   -8.0113   -6.2791 C   0  0
    1.1414   -8.3867   -5.0755 C   0  0  1  0  0  0
    0.4012   -8.1244   -3.7893 C   0  0
   -0.2663   -9.0020   -3.2840 O   0  0
    0.4808   -6.9147   -3.2005 N   0  0
   -0.2388   -6.6597   -1.9502 C   0  0
    0.0183   -5.2208   -1.4981 C   0  0
   -0.7333   -4.9546   -0.1923 C   0  0
   -0.4865   -3.5730    0.2418 N   0  0
   -1.3721   -3.2047    1.3552 C   0  0
   -1.1399   -1.7376    1.7244 C   0  0
    0.2702   -1.5446    2.0907 N   0  0
    1.1557   -1.9130    0.9772 C   0  0
    0.9235   -3.3800    0.6081 C   0  0
    0.5027   -0.2430    2.4996 C   0  0
   -0.5014    0.6215    2.5080 N   0  0
   -0.3140    1.8716    2.8977 C   0  0
    0.9527    2.2750    3.2898 C   0  0
    1.9814    1.3464    3.2640 C   0  0
    1.7253    0.1105    2.8683 N   0  0
    4.7678  -11.1386   -4.2115 H   0  0
    4.3425   -9.6672   -5.1466 H   0  0
    4.0192  -11.2949   -5.8390 H   0  0
    1.4205  -11.0939   -6.8866 H   0  0
   -0.1978  -10.7830   -6.1166 H   0  0
   -0.2821   -9.2844   -7.9818 H   0  0
    1.5055   -8.8902   -7.8478 H   0  0
    0.5436   -7.0279   -6.6761 H   0  0
   -0.8101   -8.0511   -5.9943 H   0  0
    2.0638   -7.7874   -5.0699 H   0  0
    1.0476   -6.1694   -3.6296 H   0  0
   -1.3171   -6.8057   -2.1112 H   0  0
    0.1137   -7.3555   -1.1745 H   0  0
    1.0964   -5.0742   -1.3364 H   0  0
   -0.3346   -4.5235   -2.2721 H   0  0
   -1.8116   -5.1007   -0.3534 H   0  0
   -0.3808   -5.6504    0.5834 H   0  0
   -2.4203   -3.3448    1.0524 H   0  0
   -1.1529   -3.8404    2.2257 H   0  0
   -1.7801   -1.4669    2.5770 H   0  0
   -1.3854   -1.0991    0.8630 H   0  0
    2.2042   -1.7729    1.2789 H   0  0
    0.9354   -1.2770    0.1071 H   0  0
    1.5653   -3.6492   -0.2437 H   0  0
    1.1696   -4.0180    1.4698 H   0  0
   -1.1534    2.5824    2.9104 H   0  0
    1.1376    3.3096    3.6144 H   0  0
    2.9985    1.6338    3.5689 H   0  0
  1  2  1  0
  2  3  2  0
  2  4  2  0
  2  5  1  0
  5  9  1  0
  5  6  1  0
  6  7  1  0
  7  8  1  0
  8  9  1  0
  9 10  1  0
 10 11  2  0
 10 12  1  0
 12 13  1  0
 13 14  1  0
 14 15  1  0
 15 16  1  0
 16 21  1  0
 16 17  1  0
 17 18  1  0
 18 19  1  0
 19 20  1  0
 19 22  1  0
 20 21  1  0
 22 27  2  0
 22 23  1  0
 23 24  2  0
 24 25  1  0
 25 26  2  0
 26 27  1  0
  1 28  1  0
  1 29  1  0
  1 30  1  0
  6 31  1  0
  6 32  1  0
  7 33  1  0
  7 34  1  0
  8 35  1  0
  8 36  1  0
  9 37  1  0
 12 38  1  0
 13 39  1  0
 13 40  1  0
 14 41  1  0
 14 42  1  0
 15 43  1  0
 15 44  1  0
 17 45  1  0
 17 46  1  0
 18 47  1  0
 18 48  1  0
 20 49  1  0
 20 50  1  0
 21 51  1  0
 21 52  1  0
 24 53  1  0
 25 54  1  0
 26 55  1  0
M  END
> <Name>
ZINC30646201

> <reference>
BDB50084632

> <quality>
0.661

> <status>
decoy

$$$$
ZINC29220568
  SciTegic06061311253D

 50 51  0  0  0  0            999 V2000
   -0.7854    2.2646   -0.5042 C   0  0
   -0.6839    0.8115   -0.3479 N   0  0
   -1.7989    0.0544   -0.3457 C   0  0
   -2.8888    0.5773   -0.4735 O   0  0
   -1.6965   -1.4120   -0.1879 C   0  0
   -0.4460   -2.0162   -0.0468 C   0  0
   -0.3577   -3.3845    0.1044 C   0  0
   -1.5045   -4.1589    0.1062 C   0  0
   -2.7465   -3.5669   -0.0381 C   0  0
   -2.8491   -2.1988   -0.1853 C   0  0
   -3.9900   -4.4181   -0.0350 C   0  0
   -4.3002   -4.8345   -1.4049 N   0  0
   -5.3771   -5.6080   -1.6466 C   0  0
   -6.0912   -5.9603   -0.7277 O   0  0
   -5.6897   -6.0276   -3.0269 C   0  0
   -4.8699   -5.6234   -4.0837 C   0  0
   -5.1648   -6.0176   -5.3752 C   0  0
   -6.2775   -6.8171   -5.6235 C   0  0
   -7.0958   -7.2211   -4.5723 C   0  0
   -6.8022   -6.8340   -3.2780 C   0  0
   -7.6691   -7.2693   -2.1599 N   0  0
   -8.6214   -6.5872   -1.8264 O   0  0
   -7.4300   -8.3097   -1.5734 O   0  0
   -8.1819   -8.0020   -4.8181 O   0  0
   -7.9664   -9.4135   -4.8755 C   0  0
   -6.5647   -7.2041   -6.8942 O   0  0
   -7.4098   -6.3425   -7.6593 C   0  0
   -4.3672   -5.6246   -6.4043 O   0  0
   -3.2426   -4.8057   -6.0774 C   0  0
   -1.4482    2.5948    0.3092 H   0  0
   -1.3290    2.4140   -1.4488 H   0  0
    0.1847    2.7830   -0.4917 H   0  0
    0.2396    0.3685   -0.2397 H   0  0
    0.4669   -1.4026   -0.0562 H   0  0
    0.6265   -3.8611    0.2238 H   0  0
   -1.4282   -5.2500    0.2229 H   0  0
   -3.8372   -1.7293   -0.3003 H   0  0
   -3.8236   -5.3083    0.5895 H   0  0
   -4.8319   -3.8378    0.3706 H   0  0
   -3.6953   -4.5361   -2.1833 H   0  0
   -3.9906   -4.9921   -3.8880 H   0  0
   -7.5212   -9.6979   -3.9107 H   0  0
   -7.2109   -9.5794   -5.6576 H   0  0
   -8.8893   -9.9769   -5.0776 H   0  0
   -6.9145   -5.3605   -7.6782 H   0  0
   -8.3439   -6.2383   -7.0878 H   0  0
   -7.5964   -6.7218   -8.6749 H   0  0
   -2.6470   -5.3750   -5.3486 H   0  0
   -3.6443   -3.9188   -5.5655 H   0  0
   -2.6468   -4.5291   -6.9598 H   0  0
  1  2  1  0
  2  3  1  0
  3  4  2  0
  3  5  1  0
  5 10  2  0
  5  6  1  0
  6  7  2  0
  7  8  1  0
  8  9  2  0
  9 10  1  0
  9 11  1  0
 11 12  1  0
 12 13  1  0
 13 14  2  0
 13 15  1  0
 15 20  2  0
 15 16  1  0
 16 17  2  0
 17 18  1  0
 17 28  1  0
 18 19  2  0
 18 26  1  0
 19 20  1  0
 19 24  1  0
 20 21  1  0
 21 22  2  0
 21 23  2  0
 24 25  1  0
 26 27  1  0
 28 29  1  0
  1 30  1  0
  1 31  1  0
  1 32  1  0
  2 33  1  0
  6 34  1  0
  7 35  1  0
  8 36  1  0
 10 37  1  0
 11 38  1  0
 11 39  1  0
 12 40  1  0
 16 41  1  0
 25 42  1  0
 25 43  1  0
 25 44  1  0
 27 45  1  0
 27 46  1  0
 27 47  1  0
 29 48  1  0
 29 49  1  0
 29 50  1  0
M  END
> <Name>
ZINC29220568

> <reference>
BDB50084632

> <quality>
0.659

> <status>
decoy

$$$$
ZINC31904735
  SciTegic06061311253D

 44 45  0  0  1  0            999 V2000
   -0.0127    1.0858    0.0080 C   0  0
   -0.7181    1.5718    1.2479 C   0  0
   -0.0248    1.8030    2.3832 C   0  0
   -0.6809    2.2446    3.4999 N   0  0
   -2.0102    2.4509    3.4770 C   0  0
   -2.5731    2.8438    4.4805 O   0  0
   -2.7256    2.2288    2.3587 N   0  0
   -2.1156    1.7977    1.2361 C   0  0
   -2.7615    1.6006    0.2227 O   0  0
   -4.1719    2.4620    2.3596 C   0  0
   -4.4556    3.9081    1.9482 C   0  0
   -5.9661    4.1517    1.9491 C   0  0
   -6.2497    5.5978    1.5377 C   0  0
   -8.1906    5.9108    1.5389 Br  0  0
    0.0713    2.4955    4.7318 C   0  0  1  0  0  0
    0.6587    1.1745    5.2653 C   0  0
    2.1851    1.4291    5.3108 C   0  0  1  0  0  0
    2.2556    2.9773    5.3310 C   0  0  2  0  0  0
    1.1752    3.3751    4.4598 O   0  0
    3.5981    3.4627    4.7806 C   0  0
    3.6839    4.8825    4.9178 O   0  0
    2.7734    0.8630    6.5272 N   0  0
    2.7896   -0.2507    6.6779 N   0  3
    2.8058   -1.3645    6.8287 N   0  5
   -0.2579    1.8296   -0.7644 H   0  0
   -0.5327    0.1556   -0.2646 H   0  0
    1.0712    0.9449    0.1321 H   0  0
    1.0623    1.6372    2.4103 H   0  0
   -4.6543    1.7772    1.6467 H   0  0
   -4.5726    2.2832    3.3683 H   0  0
   -3.9738    4.5935    2.6610 H   0  0
   -4.0565    4.0885    0.9392 H   0  0
   -6.4485    3.4669    1.2361 H   0  0
   -6.3669    3.9729    2.9578 H   0  0
   -5.8507    5.7782    0.5286 H   0  0
   -5.7680    6.2832    2.2505 H   0  0
   -0.6126    2.9437    5.4676 H   0  0
    0.4337    0.3512    4.5713 H   0  0
    0.2790    0.9727    6.2778 H   0  0
    2.7370    0.9703    4.4772 H   0  0
    2.1688    3.3985    6.3435 H   0  0
    4.4173    2.9904    5.3426 H   0  0
    3.6791    3.1922    3.7175 H   0  0
    3.6122    5.1275    5.8743 H   0  0
  1  2  1  0
  2  8  1  0
  2  3  2  0
  3  4  1  0
  4  5  1  0
  4 15  1  0
  5  6  2  0
  5  7  1  0
  7  8  1  0
  7 10  1  0
  8  9  2  0
 10 11  1  0
 11 12  1  0
 12 13  1  0
 13 14  1  0
 15 19  1  0
 15 16  1  0
 16 17  1  0
 17 18  1  0
 17 22  1  0
 18 19  1  0
 18 20  1  0
 20 21  1  0
 22 23  2  0
 23 24  2  0
  1 25  1  0
  1 26  1  0
  1 27  1  0
  3 28  1  0
 10 29  1  0
 10 30  1  0
 11 31  1  0
 11 32  1  0
 12 33  1  0
 12 34  1  0
 13 35  1  0
 13 36  1  0
 15 37  1  0
 16 38  1  0
 16 39  1  0
 17 40  1  0
 18 41  1  0
 20 42  1  0
 20 43  1  0
 21 44  1  0
M  CHG  2  23   1  24  -1
M  END
> <Name>
ZINC31904735

> <reference>
BDB50084632

> <quality>
0.658

> <status>
decoy

$$$$
ZINC17248929
  SciTegic06061311253D

 53 54  0  0  0  0            999 V2000
   -6.0574   -1.0160   -0.4015 C   0  0
   -4.7647   -0.2493   -0.2907 C   0  0
   -3.5969   -0.7884   -0.7990 C   0  0
   -2.4118   -0.0861   -0.7037 C   0  0
   -2.3911    1.1577   -0.0859 C   0  0
   -3.5652    1.6961    0.4234 C   0  0
   -4.7486    0.9913    0.3194 C   0  0
   -6.0234    1.5750    0.8719 C   0  0
   -1.1906    1.8691    0.0179 N   0  0
   -0.0267    1.2078    0.1742 C   0  0
   -0.0283    0.0014    0.3219 O   0  0
    1.1393    1.8836    0.1612 N   0  0
    2.3036    1.2216    0.3121 C   0  0
    2.3020    0.0182    0.4594 O   0  0
    3.6074    1.9772    0.2975 C   0  0
    4.7078    1.0472    0.4774 O   0  0
    5.9528    1.5663    0.4883 C   0  0
    6.1135    2.7641    0.3512 O   0  0
    7.1106    0.6880    0.6652 C   0  0
    8.4580    1.0149    0.7058 C   0  0
    9.3456   -0.0158    0.8857 C   0  0
    8.8733   -1.2840    1.0133 C   0  0
    7.1558   -1.0810    0.8927 S   0  0
    9.6533   -2.5572    1.2170 C   0  0
    9.8311   -2.8123    2.7150 C   0  0
   10.5894   -4.0500    2.9130 N   0  0
   11.2520   -4.3874    4.3927 S   0  0
   11.9214   -5.6283    4.2158 O   0  0
   11.9774   -3.2161    4.7407 O   0  0
    9.8324   -4.5960    5.5026 C   0  0
   -6.7468   -0.3404   -0.9290 H   0  0
   -6.4228   -1.1120    0.6316 H   0  0
   -5.9554   -1.9892   -0.9039 H   0  0
   -3.6122   -1.7777   -1.2797 H   0  0
   -1.4851   -0.5112   -1.1166 H   0  0
   -3.5530    2.6829    0.9092 H   0  0
   -6.3979    0.8233    1.5823 H   0  0
   -6.7210    1.5950    0.0216 H   0  0
   -5.8956    2.5646    1.3348 H   0  0
   -1.1964    2.8982   -0.0251 H   0  0
    1.1406    2.9060    0.0359 H   0  0
    3.7201    2.4957   -0.6660 H   0  0
    3.6143    2.7146    1.1137 H   0  0
    8.7999    2.0549    0.5985 H   0  0
   10.4269    0.1819    0.9262 H   0  0
    9.1073   -3.3982    0.7647 H   0  0
   10.6410   -2.4634    0.7420 H   0  0
    8.8443   -2.9076    3.1915 H   0  0
   10.3774   -1.9718    3.1679 H   0  0
   10.7104   -4.7104    2.1319 H   0  0
    9.1966   -5.4387    5.1933 H   0  0
    9.2376   -3.6737    5.5774 H   0  0
   10.2216   -4.8234    6.5060 H   0  0
  1  2  1  0
  2  7  2  0
  2  3  1  0
  3  4  2  0
  4  5  1  0
  5  6  2  0
  5  9  1  0
  6  7  1  0
  7  8  1  0
  9 10  1  0
 10 11  2  0
 10 12  1  0
 12 13  1  0
 13 14  2  0
 13 15  1  0
 15 16  1  0
 16 17  1  0
 17 18  2  0
 17 19  1  0
 19 23  1  0
 19 20  2  0
 20 21  1  0
 21 22  2  0
 22 23  1  0
 22 24  1  0
 24 25  1  0
 25 26  1  0
 26 27  1  0
 27 28  2  0
 27 29  2  0
 27 30  1  0
  1 31  1  0
  1 32  1  0
  1 33  1  0
  3 34  1  0
  4 35  1  0
  6 36  1  0
  8 37  1  0
  8 38  1  0
  8 39  1  0
  9 40  1  0
 12 41  1  0
 15 42  1  0
 15 43  1  0
 20 44  1  0
 21 45  1  0
 24 46  1  0
 24 47  1  0
 25 48  1  0
 25 49  1  0
 26 50  1  0
 30 51  1  0
 30 52  1  0
 30 53  1  0
M  END
> <Name>
ZINC17248929

> <reference>
BDB50146428

> <quality>
0.870

> <status>
decoy

$$$$
ZINC11388508
  SciTegic06061311253D

 48 50  0  0  0  0            999 V2000
    1.7513    2.1066   -0.8674 C   0  0
    1.0068    2.6762    0.2112 O   0  0
    1.3055    2.2444    1.4607 C   0  0
    0.6291    2.7550    2.5629 C   0  0
    0.9662    2.2795    3.8252 C   0  0
    1.9243    1.3653    3.9375 N   0  0
    2.5506    0.9048    2.8661 C   0  0
    2.2527    1.3313    1.6489 N   0  0
    3.5468   -0.0507    3.0233 N   0  0
    3.8641   -0.4971    4.2547 C   0  0
    3.2800   -0.0648    5.2255 O   0  0
    4.9448   -1.5335    4.4252 C   0  0
    5.1348   -1.9236    6.1824 S   0  0
    6.4223   -3.1231    6.0920 C   0  0
    7.0114   -3.5534    4.9992 N   0  0
    7.9077   -4.4255    5.2950 N   0  0
    7.9405   -4.6119    6.5940 C   0  0
    6.9901   -3.7835    7.1448 N   0  0
    6.6790   -3.6493    8.4681 N   0  0
    8.8301   -5.5375    7.3266 C   0  0
    9.9689   -6.0528    6.7049 C   0  0
   10.7987   -6.9119    7.3932 C   0  0
   10.4973   -7.2732    8.6997 C   0  0
    9.3627   -6.7670    9.3199 C   0  0
    8.5307   -5.9032    8.6403 C   0  0
   11.3146   -8.1247    9.3728 O   0  0
   12.4645   -8.6077    8.6752 C   0  0  1  0  0  0
   12.0580   -9.3026    7.5310 F   0  0
   13.2717   -7.5276    8.3027 F   0  0
    0.3297    2.7459    4.9271 O   0  0
    0.7383    2.2108    6.1876 C   0  0
    1.5975    1.0190   -0.8090 H   0  0
    2.8109    2.3096   -0.6531 H   0  0
    1.4526    2.5059   -1.8479 H   0  0
   -0.1543    3.5172    2.4392 H   0  0
    4.0429   -0.4179    2.1987 H   0  0
    4.6686   -2.4454    3.8756 H   0  0
    5.8949   -1.1422    4.0325 H   0  0
    5.9316   -2.9703    8.6710 H   0  0
    7.1443   -4.1772    9.2202 H   0  0
   10.2038   -5.7737    5.6672 H   0  0
   11.7007   -7.3117    6.9069 H   0  0
    9.1275   -7.0557   10.3550 H   0  0
    7.6321   -5.5026    9.1324 H   0  0
   13.0345   -9.2824    9.3308 H   0  0
    1.8162    2.4121    6.2744 H   0  0
    0.6028    1.1213    6.1198 H   0  0
    0.1774    2.6369    7.0325 H   0  0
  1  2  1  0
  2  3  1  0
  3  8  2  0
  3  4  1  0
  4  5  2  0
  5  6  1  0
  5 30  1  0
  6  7  2  0
  7  8  1  0
  7  9  1  0
  9 10  1  0
 10 11  2  0
 10 12  1  0
 12 13  1  0
 13 14  1  0
 14 18  1  0
 14 15  2  0
 15 16  1  0
 16 17  2  0
 17 18  1  0
 17 20  1  0
 18 19  1  0
 20 25  2  0
 20 21  1  0
 21 22  2  0
 22 23  1  0
 23 24  2  0
 23 26  1  0
 24 25  1  0
 26 27  1  0
 27 28  1  0
 27 29  1  0
 30 31  1  0
  1 32  1  0
  1 33  1  0
  1 34  1  0
  4 35  1  0
  9 36  1  0
 12 37  1  0
 12 38  1  0
 19 39  1  0
 19 40  1  0
 21 41  1  0
 22 42  1  0
 24 43  1  0
 25 44  1  0
 27 45  1  0
 31 46  1  0
 31 47  1  0
 31 48  1  0
M  END
> <Name>
ZINC11388508

> <reference>
BDB50146428

> <quality>
0.853

> <status>
decoy

$$$$
ZINC31666663
  SciTegic06061311253D

 51 52  0  0  0  0            999 V2000
    3.2010   -9.7895    6.9467 C   0  0
    3.1939   -8.3175    6.5293 C   0  0
    4.2599   -8.0817    5.5525 N   0  0
    5.6230   -7.8000    6.0096 C   0  0
    5.7634   -6.3053    6.3045 C   0  0
    3.9242   -8.1335    3.9318 S   0  0
    2.7632   -8.9392    3.7831 O   0  0
    5.1475   -8.4313    3.2729 O   0  0
    3.4718   -6.5029    3.4410 C   0  0
    2.1441   -6.0983    3.4908 C   0  0
    1.8322   -4.8083    3.1017 C   0  0
    2.8517   -3.9681    2.6651 C   0  0
    4.1058   -4.3913    2.6321 N   0  0
    4.4332   -5.6148    3.0029 C   0  0
    2.5516   -2.6711    2.2653 N   0  0
    3.5741   -1.8180    1.8300 N   0  0
    3.4860   -1.1169    0.3323 S   0  0
    3.3783   -2.1777   -0.6070 O   0  0
    4.5264   -0.1507    0.2743 O   0  0
    1.9673   -0.2263    0.2625 C   0  0
    0.9959   -0.5968   -0.6421 C   0  0
   -0.2089    0.1086   -0.6985 C   0  0
   -0.4195    1.1905    0.1685 C   0  0
    0.5690    1.5487    1.0725 C   0  0
    1.7550    0.8427    1.1174 C   0  0
    2.8251    1.2380    2.1022 C   0  0
   -1.5869    1.8798    0.1268 O   0  0
   -1.2523   -0.2821   -1.6636 C   0  0
   -2.2987    0.3338   -1.7096 O   0  0
   -1.0458   -1.3224   -2.4949 O   0  5
    4.1726  -10.0390    7.3980 H   0  0
    3.0343  -10.4230    6.0630 H   0  0
    2.4007   -9.9672    7.6802 H   0  0
    2.2221   -8.0689    6.0779 H   0  0
    3.3605   -7.6839    7.4129 H   0  0
    5.8292   -8.3746    6.9246 H   0  0
    6.3402   -8.0874    5.2267 H   0  0
    5.0476   -6.0163    7.0881 H   0  0
    5.5576   -5.7292    5.3903 H   0  0
    6.7867   -6.0931    6.6478 H   0  0
    1.3583   -6.7883    3.8320 H   0  0
    0.7923   -4.4514    3.1369 H   0  0
    5.4860   -5.9309    2.9623 H   0  0
    1.5775   -2.3372    2.2891 H   0  0
    4.3806   -1.6269    2.4415 H   0  0
    1.1688   -1.4466   -1.3188 H   0  0
    0.4083    2.3964    1.7548 H   0  0
    3.7202    1.4297    1.4923 H   0  0
    3.0214    0.3309    2.6927 H   0  0
    2.5532    2.0983    2.7314 H   0  0
   -2.2894    1.1971    0.2701 H   0  0
  1  2  1  0
  2  3  1  0
  3  4  1  0
  3  6  1  0
  4  5  1  0
  6  7  2  0
  6  8  2  0
  6  9  1  0
  9 14  2  0
  9 10  1  0
 10 11  2  0
 11 12  1  0
 12 13  2  0
 12 15  1  0
 13 14  1  0
 15 16  1  0
 16 17  1  0
 17 18  2  0
 17 19  2  0
 17 20  1  0
 20 25  2  0
 20 21  1  0
 21 22  2  0
 22 23  1  0
 22 28  1  0
 23 24  2  0
 23 27  1  0
 24 25  1  0
 25 26  1  0
 28 29  2  0
 28 30  1  0
  1 31  1  0
  1 32  1  0
  1 33  1  0
  2 34  1  0
  2 35  1  0
  4 36  1  0
  4 37  1  0
  5 38  1  0
  5 39  1  0
  5 40  1  0
 10 41  1  0
 11 42  1  0
 14 43  1  0
 15 44  1  0
 16 45  1  0
 21 46  1  0
 24 47  1  0
 26 48  1  0
 26 49  1  0
 26 50  1  0
 27 51  1  0
M  CHG  1  30  -1
M  END
> <Name>
ZINC31666663

> <reference>
BDB50146428

> <quality>
0.846

> <status>
decoy

$$$$
ZINC16665522
  SciTegic06061311253D

 58 60  0  0  1  0            999 V2000
    0.3592  -10.6729    2.0211 C   0  0
   -0.9116  -10.3741    1.2231 C   0  0
   -0.9817   -8.9519    0.9392 O   0  0
   -2.0489   -8.5196    0.2381 C   0  0
   -2.8976   -9.3101   -0.1260 O   0  0
   -2.1862   -7.0926   -0.0862 C   0  0
   -1.1683   -6.1827    0.2253 C   0  0
   -1.3296   -4.9098   -0.0827 N   0  0
   -2.4368   -4.4826   -0.6799 C   0  0
   -3.4302   -5.3035   -0.9900 N   0  0
   -3.3485   -6.6010   -0.7210 C   0  0
   -4.3818   -7.4522   -1.0499 N   0  0
   -2.5925   -2.7704   -1.0653 S   0  0
   -1.0094   -2.1609   -0.4340 C   0  0
   -0.9167   -0.6741   -0.6618 C   0  0
   -1.8309   -0.0845   -1.1982 O   0  0
    0.1822    0.0005   -0.2695 N   0  0
    0.2520    1.3746   -0.4452 C   0  0
   -0.7755    2.2800   -0.2202 C   0  0
   -0.2254    3.6031   -0.5400 C   0  0
    1.0452    3.4085   -0.9288 C   0  0
    1.3360    2.0716   -0.8734 N   0  0
    2.6289    1.4792   -1.2250 C   0  0
    2.6914    1.2518   -2.7367 C   0  0  1  0  0  0
    4.0853    0.7097   -3.1418 C   0  0
    3.7396   -0.0307   -4.4638 C   0  0
    2.3188   -0.5639   -4.1806 C   0  0
    1.7611    0.2289   -3.1260 O   0  0
    2.0011    4.4915   -1.3583 C   0  0
   -0.9480    4.9227   -0.4539 C   0  0
   -2.1010    1.9844    0.2340 C   0  0
   -3.1525    1.7499    0.5944 N   0  0
    0.3400  -10.1114    2.9668 H   0  0
    1.2404  -10.3728    1.4351 H   0  0
    0.4129  -11.7503    2.2365 H   0  0
   -0.8914  -10.9357    0.2775 H   0  0
   -1.7929  -10.6742    1.8090 H   0  0
   -0.2471   -6.5244    0.7199 H   0  0
   -4.3033   -8.4553   -0.8298 H   0  0
   -5.2272   -7.0889   -1.5127 H   0  0
   -0.1852   -2.6639   -0.9609 H   0  0
   -0.9386   -2.3714    0.6434 H   0  0
    0.9702   -0.5044    0.1608 H   0  0
    3.4385    2.1600   -0.9234 H   0  0
    2.7461    0.5169   -0.7051 H   0  0
    2.4686    2.2157   -3.2175 H   0  0
    4.7794    1.5404   -3.3372 H   0  0
    4.4562   -0.0017   -2.3892 H   0  0
    4.4353   -0.8668   -4.6276 H   0  0
    3.7208    0.6780   -5.3049 H   0  0
    2.3728   -1.6163   -3.8652 H   0  0
    1.6997   -0.4678   -5.0848 H   0  0
    1.9902    5.1829   -0.5028 H   0  0
    1.4527    4.9975   -2.1665 H   0  0
    3.0088    4.1578   -1.6467 H   0  0
   -1.3104    4.9161    0.5847 H   0  0
   -1.8383    4.7352   -1.0722 H   0  0
   -0.3843    5.8254   -0.7321 H   0  0
  1  2  1  0
  2  3  1  0
  3  4  1  0
  4  5  2  0
  4  6  1  0
  6 11  2  0
  6  7  1  0
  7  8  2  0
  8  9  1  0
  9 10  2  0
  9 13  1  0
 10 11  1  0
 11 12  1  0
 13 14  1  0
 14 15  1  0
 15 16  2  0
 15 17  1  0
 17 18  1  0
 18 22  1  0
 18 19  2  0
 19 20  1  0
 19 31  1  0
 20 21  2  0
 20 30  1  0
 21 22  1  0
 21 29  1  0
 22 23  1  0
 23 24  1  0
 24 28  1  0
 24 25  1  0
 25 26  1  0
 26 27  1  0
 27 28  1  0
 31 32  3  0
  1 33  1  0
  1 34  1  0
  1 35  1  0
  2 36  1  0
  2 37  1  0
  7 38  1  0
 12 39  1  0
 12 40  1  0
 14 41  1  0
 14 42  1  0
 17 43  1  0
 23 44  1  0
 23 45  1  0
 24 46  1  0
 25 47  1  0
 25 48  1  0
 26 49  1  0
 26 50  1  0
 27 51  1  0
 27 52  1  0
 29 53  1  0
 29 54  1  0
 29 55  1  0
 30 56  1  0
 30 57  1  0
 30 58  1  0
M  END
> <Name>
ZINC16665522

> <reference>
BDB50146428

> <quality>
0.836

> <status>
decoy

$$$$
ZINC08830446
  SciTegic06061311253D

 53 56  0  0  1  0            999 V2000
   11.4080   11.1901    0.4896 C   0  0
   10.8922   11.0226   -0.9411 C   0  0
    9.5498   10.4702   -0.9100 O   0  0
    8.9473   10.2595   -2.0968 C   0  0
    9.5279   10.5300   -3.1293 O   0  0
    7.5835    9.7007   -2.1424 C   0  0
    6.9569    9.4815   -3.3729 C   0  0
    5.6839    8.9593   -3.4117 C   0  0
    5.0209    8.6493   -2.2283 C   0  0
    5.6392    8.8715   -1.0017 C   0  0
    6.9141    9.3885   -0.9554 C   0  0
    3.7318    8.1202   -2.2714 N   0  0
    3.3362    7.2323   -1.3378 C   0  0
    4.1292    6.8210   -0.5176 O   0  0
    1.9085    6.7506   -1.3131 C   0  0
    1.7254    5.7565   -0.1646 C   0  5
    0.3172    5.1749   -0.1515 C   0  0
   -0.6697    5.8651    0.0151 O   0  0
    0.2436    3.8857   -0.3368 N   0  0
    1.2937    3.0941   -0.5176 C   0  0
    2.6848    4.2150   -0.4520 S   0  0
    1.3076    1.7450   -0.7131 N   0  0
    0.1044    1.0276   -0.7335 N   0  0
    0.1177   -0.2580   -0.9198 C   0  0
   -1.1463   -1.0116   -0.9412 C   0  0
   -1.2910   -2.3519   -1.1240 C   0  0
   -2.6130   -2.6816   -1.0804 N   0  0
   -3.3791   -1.5556   -0.8657 C   0  0
   -2.5022   -0.4628   -0.7624 C   0  0
   -3.0051    0.8166   -0.5362 C   0  0
   -4.3643    1.0029   -0.4111 C   0  0
   -5.2312   -0.0760   -0.5093 C   0  0
   -4.7486   -1.3457   -0.7409 C   0  0
   11.4267   10.2111    0.9907 H   0  0
   10.7445   11.8716    1.0422 H   0  0
   12.4250   11.6086    0.4668 H   0  0
   10.8736   12.0021   -1.4413 H   0  0
   11.5556   10.3411   -1.4938 H   0  0
    7.4806    9.7260   -4.3088 H   0  0
    5.1901    8.7869   -4.3794 H   0  0
    5.1086    8.6337   -0.0679 H   0  0
    7.4056    9.5558    0.0144 H   0  0
    3.0817    8.4079   -3.0167 H   0  0
    1.2347    7.6076   -1.1664 H   0  0
    1.6706    6.2561   -2.2665 H   0  0
    2.2028    1.2531   -0.8458 H   0  0
    1.0737   -0.7833   -1.0616 H   0  0
   -0.4661   -3.0621   -1.2829 H   0  0
   -2.9861   -3.6352   -1.1919 H   0  0
   -2.3202    1.6738   -0.4579 H   0  0
   -4.7643    2.0119   -0.2325 H   0  0
   -6.3142    0.0838   -0.4012 H   0  0
   -5.4455   -2.1924   -0.8270 H   0  0
  1  2  1  0
  2  3  1  0
  3  4  1  0
  4  5  2  0
  4  6  1  0
  6 11  2  0
  6  7  1  0
  7  8  2  0
  8  9  1  0
  9 10  2  0
  9 12  1  0
 10 11  1  0
 12 13  1  0
 13 14  2  0
 13 15  1  0
 15 16  1  0
 16 21  1  0
 16 17  1  0
 17 18  2  0
 17 19  1  0
 19 20  2  0
 20 21  1  0
 20 22  1  0
 22 23  1  0
 23 24  2  0
 24 25  1  0
 25 29  1  0
 25 26  2  0
 26 27  1  0
 27 28  1  0
 28 33  2  0
 28 29  1  0
 29 30  2  0
 30 31  1  0
 31 32  2  0
 32 33  1  0
  1 34  1  0
  1 35  1  0
  1 36  1  0
  2 37  1  0
  2 38  1  0
  7 39  1  0
  8 40  1  0
 10 41  1  0
 11 42  1  0
 12 43  1  0
 15 44  1  0
 15 45  1  0
 22 46  1  0
 24 47  1  0
 26 48  1  0
 27 49  1  0
 30 50  1  0
 31 51  1  0
 32 52  1  0
 33 53  1  0
M  CHG  1  16  -1
M  END
> <Name>
ZINC08830446

> <reference>
BDB50146428

> <quality>
0.833

> <status>
decoy

$$$$
ZINC03254041
  SciTegic06061311253D

 52 54  0  0  0  0            999 V2000
    1.1174   -1.0637   -0.7982 C   0  0
    1.2539   -2.1514   -0.0390 C   0  0
    0.1263   -2.6130    0.8031 C   0  0
   -1.0793   -1.9123    0.8041 C   0  0
   -2.1264   -2.3476    1.5904 C   0  0
   -1.9819   -3.4766    2.3767 C   0  0
   -0.7883   -4.1759    2.3799 C   0  0
    0.2660   -3.7504    1.5978 C   0  0
   -3.1088   -3.9380    3.2183 N   0  0
   -4.1607   -3.3239    3.2177 O   0  0
   -2.9842   -4.9317    3.9115 O   0  0
    2.4591   -2.8546   -0.0379 N   0  0
    3.5257   -2.4179   -0.8344 N   0  0
    4.6898   -3.0971   -0.8334 C   0  0
    5.9931   -2.5635   -1.8067 S   0  0
    4.8278   -4.1965   -0.0660 N   0  0
    6.0029   -4.9525   -0.1320 C   0  0
    5.9359   -6.3376   -0.2087 C   0  0
    7.0979   -7.0808   -0.2786 C   0  0
    8.3273   -6.4480   -0.2616 C   0  0
    8.3976   -5.0693   -0.1800 C   0  0
    7.2392   -4.3200   -0.1152 C   0  0
    9.8075   -7.4003   -0.3448 S   0  0
    9.4637   -8.6319   -0.9647 O   0  0
   10.8143   -6.5416   -0.8627 O   0  0
   10.2464   -7.7598    1.2110 N   0  0
   11.1362   -6.8686    1.9722 C   0  0
   10.4795   -6.5836    3.3324 C   0  0
   10.1377   -7.8232    3.9570 O   0  0
    9.1776   -8.5976    3.2343 C   0  0
    9.7631   -8.9830    1.8710 C   0  0
    0.1674   -0.5092   -0.7991 H   0  0
    1.9549   -0.7209   -1.4236 H   0  0
   -1.1954   -1.0144    0.1794 H   0  0
   -3.0780   -1.7957    1.5920 H   0  0
   -0.6794   -5.0729    3.0071 H   0  0
    1.2146   -4.3072    1.6012 H   0  0
    2.5646   -3.6948    0.5485 H   0  0
    3.4202   -1.5777   -1.4208 H   0  0
    4.0680   -4.4800    0.5690 H   0  0
    4.9584   -6.8421   -0.2138 H   0  0
    7.0454   -8.1774   -0.3479 H   0  0
    9.3771   -4.5689   -0.1667 H   0  0
    7.2957   -3.2234   -0.0504 H   0  0
   11.2739   -5.9249    1.4241 H   0  0
   12.1081   -7.3600    2.1273 H   0  0
   11.1841   -6.0321    3.9723 H   0  0
    9.5691   -5.9844    3.1837 H   0  0
    8.9386   -9.5092    3.8016 H   0  0
    8.2627   -8.0052    3.0859 H   0  0
    8.9827   -9.4523    1.2540 H   0  0
   10.5999   -9.6825    2.0139 H   0  0
  1  2  2  0
  2  3  1  0
  2 12  1  0
  3  8  2  0
  3  4  1  0
  4  5  2  0
  5  6  1  0
  6  7  2  0
  6  9  1  0
  7  8  1  0
  9 10  2  0
  9 11  2  0
 12 13  1  0
 13 14  1  0
 14 15  2  0
 14 16  1  0
 16 17  1  0
 17 22  2  0
 17 18  1  0
 18 19  2  0
 19 20  1  0
 20 21  2  0
 20 23  1  0
 21 22  1  0
 23 24  2  0
 23 25  2  0
 23 26  1  0
 26 31  1  0
 26 27  1  0
 27 28  1  0
 28 29  1  0
 29 30  1  0
 30 31  1  0
  1 32  1  0
  1 33  1  0
  4 34  1  0
  5 35  1  0
  7 36  1  0
  8 37  1  0
 12 38  1  0
 13 39  1  0
 16 40  1  0
 18 41  1  0
 19 42  1  0
 21 43  1  0
 22 44  1  0
 27 45  1  0
 27 46  1  0
 28 47  1  0
 28 48  1  0
 30 49  1  0
 30 50  1  0
 31 51  1  0
 31 52  1  0
M  END
> <Name>
ZINC03254041

> <reference>
BDB50146428

> <quality>
0.810

> <status>
decoy

$$$$
ZINC30987477
  SciTegic06061311253D

 47 49  0  0  0  0            999 V2000
   -7.0676   -2.2524   -0.0991 C   0  0
   -5.6241   -2.3964   -0.0363 O   0  0
   -4.8929   -1.2641   -0.0891 C   0  0
   -5.4475   -0.1859   -0.1849 O   0  0
   -3.4305   -1.3330   -0.0308 C   0  0
   -2.5645   -0.2616   -0.0677 C   0  0
   -1.2608   -0.7859    0.0104 C   0  0
   -1.3687   -2.1441    0.1011 C   0  0
   -2.6755   -2.4797    0.0767 N   0  0
    0.0021   -0.0041    0.0020 C   0  0
    1.2163   -0.6296   -0.0129 C   0  0
    2.3159    0.7786   -0.0159 S   0  0
    1.1012    2.0189    0.0024 C   0  0
   -0.0159    1.3209    0.0093 N   0  0
    1.2658    3.3987    0.0082 N   0  0
    2.5046    3.9296   -0.0008 C   0  0
    3.4757    3.2031   -0.0139 O   0  0
    2.6831    5.4260    0.0056 C   0  0
    4.1758    5.7616   -0.0069 C   0  0
    4.3493    7.2163   -0.0007 N   0  0
    5.8264    7.8724    0.3599 S   0  0
    5.6805    9.2822    0.2576 O   0  0
    6.2734    7.2372    1.5499 O   0  0
    6.9381    7.3871   -0.9181 C   0  0
    7.6632    6.2165   -0.7951 C   0  0
    8.5318    5.8324   -1.7990 C   0  0
    8.6836    6.6259   -2.9235 C   0  0
    7.9607    7.8007   -3.0432 C   0  0
    7.0888    8.1801   -2.0404 C   0  0
    9.5359    6.2538   -3.9034 F   0  0
   -7.2853   -1.7197   -1.0366 H   0  0
   -7.3501   -1.5952    0.7366 H   0  0
   -7.5923   -3.2180   -0.0505 H   0  0
   -2.8397    0.8007   -0.1437 H   0  0
   -0.5281   -2.8491    0.1810 H   0  0
   -3.0480   -3.4385    0.1299 H   0  0
    1.4521   -1.7040   -0.0209 H   0  0
    0.4411    4.0157    0.0194 H   0  0
    2.2036    5.8564   -0.8859 H   0  0
    2.2208    5.8477    0.9103 H   0  0
    4.6396    5.3416   -0.9116 H   0  0
    4.6559    5.3318    0.8846 H   0  0
    3.5526    7.8309   -0.2206 H   0  0
    7.5487    5.5906    0.1022 H   0  0
    9.1023    4.8967   -1.7048 H   0  0
    8.0804    8.4318   -3.9362 H   0  0
    6.5145    9.1135   -2.1352 H   0  0
  1  2  1  0
  2  3  1  0
  3  4  2  0
  3  5  1  0
  5  9  1  0
  5  6  2  0
  6  7  1  0
  7  8  2  0
  7 10  1  0
  8  9  1  0
 10 14  1  0
 10 11  2  0
 11 12  1  0
 12 13  1  0
 13 14  2  0
 13 15  1  0
 15 16  1  0
 16 17  2  0
 16 18  1  0
 18 19  1  0
 19 20  1  0
 20 21  1  0
 21 22  2  0
 21 23  2  0
 21 24  1  0
 24 29  2  0
 24 25  1  0
 25 26  2  0
 26 27  1  0
 27 28  2  0
 27 30  1  0
 28 29  1  0
  1 31  1  0
  1 32  1  0
  1 33  1  0
  6 34  1  0
  8 35  1  0
  9 36  1  0
 11 37  1  0
 15 38  1  0
 18 39  1  0
 18 40  1  0
 19 41  1  0
 19 42  1  0
 20 43  1  0
 25 44  1  0
 26 45  1  0
 28 46  1  0
 29 47  1  0
M  END
> <Name>
ZINC30987477

> <reference>
BDB50146428

> <quality>
0.803

> <status>
decoy

$$$$
ZINC09924651
  SciTegic06061311253D

 49 50  0  0  1  0            999 V2000
    5.9582    7.7545   -0.8169 C   0  0
    5.2341    8.0479    0.4986 C   0  0  2  0  0  0
    3.8143    7.5502    0.4123 C   0  0
    2.8924    8.3373    0.4512 O   0  0
    3.5690    6.2305    0.2920 N   0  0
    2.1887    5.7467    0.2081 C   0  0
    2.1897    4.2451    0.0798 C   0  0
    3.2400    3.6388    0.0604 O   0  0
    1.0234    3.5760   -0.0133 N   0  0
    1.0178    2.1746   -0.0144 C   0  0
    2.0625    1.4749    0.5739 C   0  0
    2.0564    0.0933    0.5725 C   0  0
    1.0097   -0.5958   -0.0158 C   0  0
   -0.0356    0.0986   -0.6049 C   0  0
   -0.0334    1.4834   -0.6052 C   0  0
   -1.0486    2.1615   -1.1838 F   0  0
   -1.0560   -0.5755   -1.1790 F   0  0
    1.0072   -1.9468   -0.0162 F   0  0
    5.2313    9.4796    0.7406 O   0  0
    6.2691    9.9845    1.4365 C   0  0
    7.1522    9.2485    1.8302 O   0  0
    6.3330   11.4294    1.7200 C   0  0
    5.3203   12.2788    1.2627 C   0  0
    5.3770   13.6168    1.5307 C   0  0
    6.4475   14.1424    2.2493 C   0  0
    7.4632   13.3053    2.7035 C   0  0
    7.4092   11.9550    2.4419 C   0  0
    8.5997   13.8669    3.4676 N   0  0
    9.5341   13.1520    3.7830 O   0  0
    8.6006   15.0439    3.7811 O   0  0
    6.5022   15.5060    2.5141 N   0  0
    5.4958   16.4041    1.9426 C   0  0
    5.4412    8.2647   -1.6430 H   0  0
    5.9611    6.6700   -1.0011 H   0  0
    6.9947    8.1176   -0.7546 H   0  0
    5.7520    7.5375    1.3240 H   0  0
    4.3519    5.5620    0.2590 H   0  0
    1.6968    6.1887   -0.6709 H   0  0
    1.6426    6.0360    1.1181 H   0  0
    0.1363    4.0946   -0.0836 H   0  0
    2.8954    2.0206    1.0413 H   0  0
    2.8845   -0.4600    1.0395 H   0  0
    4.4775   11.8689    0.6868 H   0  0
    4.5745   14.2812    1.1778 H   0  0
    8.2102   11.2913    2.7996 H   0  0
    7.2503   15.8849    3.1121 H   0  0
    4.5298   16.0029    2.2831 H   0  0
    5.5506   16.2390    0.8564 H   0  0
    5.6317   17.4612    2.2148 H   0  0
  1  2  1  0
  2  3  1  0
  2 19  1  0
  3  4  2  0
  3  5  1  0
  5  6  1  0
  6  7  1  0
  7  8  2  0
  7  9  1  0
  9 10  1  0
 10 15  2  0
 10 11  1  0
 11 12  2  0
 12 13  1  0
 13 14  2  0
 13 18  1  0
 14 15  1  0
 14 17  1  0
 15 16  1  0
 19 20  1  0
 20 21  2  0
 20 22  1  0
 22 27  2  0
 22 23  1  0
 23 24  2  0
 24 25  1  0
 25 26  2  0
 25 31  1  0
 26 27  1  0
 26 28  1  0
 28 29  2  0
 28 30  2  0
 31 32  1  0
  1 33  1  0
  1 34  1  0
  1 35  1  0
  2 36  1  0
  5 37  1  0
  6 38  1  0
  6 39  1  0
  9 40  1  0
 11 41  1  0
 12 42  1  0
 23 43  1  0
 24 44  1  0
 27 45  1  0
 31 46  1  0
 32 47  1  0
 32 48  1  0
 32 49  1  0
M  END
> <Name>
ZINC09924651

> <reference>
BDB50146428

> <quality>
0.798

> <status>
decoy

$$$$
ZINC25127966
  SciTegic06061311253D

 57 58  0  0  0  0            999 V2000
   -1.4409   11.7748    6.5641 C   0  0
   -2.6606   11.0560    7.0805 C   0  0
   -3.9212   11.5653    6.8293 C   0  0
   -5.0398   10.9063    7.3033 C   0  0
   -4.8982    9.7379    8.0287 C   0  0
   -3.6381    9.2283    8.2791 C   0  0
   -2.5189    9.8901    7.8090 C   0  0
   -3.4577    7.7392    9.2036 S   0  0
   -4.2625    7.8827   10.3659 O   0  0
   -2.0642    7.4690    9.2704 O   0  0
   -4.1334    6.5216    8.3074 N   0  0
   -3.5542    6.1573    7.0120 C   0  0
   -4.0932    4.7928    6.5779 C   0  0
   -3.5139    4.4286    5.2825 N   0  0
   -3.8468    3.2595    4.7002 C   0  0
   -4.6277    2.5074    5.2499 O   0  0
   -3.2622    2.8919    3.3930 C   0  0
   -3.6049    1.6820    2.7873 C   0  0
   -3.0561    1.3452    1.5672 C   0  0
   -2.1680    2.2038    0.9440 C   0  0
   -1.8201    3.4023    1.5414 C   0  0
   -2.3657    3.7535    2.7589 C   0  0
   -1.4713    1.7657   -0.6140 S   0  0
   -1.5302    0.3486   -0.7012 O   0  0
   -0.2520    2.4861   -0.7307 O   0  0
   -2.4828    2.3544   -1.7856 N   0  0
   -2.6634    3.8002   -1.9386 C   0  0  1  0  0  0
   -1.7091    4.3223   -3.0144 C   0  0
   -4.1071    4.0928   -2.3519 C   0  0
   -6.1179    9.0197    8.5460 C   0  0
   -0.9043   11.0290    5.9593 H   0  0
   -0.8273   11.9731    7.4553 H   0  0
   -1.6698   12.6900    5.9983 H   0  0
   -4.0339   12.4950    6.2522 H   0  0
   -6.0427   11.3114    7.1034 H   0  0
   -1.5157    9.4887    8.0148 H   0  0
   -4.9609    6.0204    8.6607 H   0  0
   -3.8274    6.9143    6.2621 H   0  0
   -2.4589    6.1069    7.1000 H   0  0
   -3.8200    4.0352    7.3272 H   0  0
   -5.1885    4.8416    6.4882 H   0  0
   -2.8522    5.0659    4.8168 H   0  0
   -4.3110    0.9986    3.2817 H   0  0
   -3.3252    0.3919    1.0888 H   0  0
   -1.1070    4.0765    1.0446 H   0  0
   -2.0948    4.7104    3.2289 H   0  0
   -2.9850    1.7041   -2.4067 H   0  0
   -2.4471    4.3000   -0.9828 H   0  0
   -1.9247    3.8233   -3.9707 H   0  0
   -0.6708    4.1125   -2.7180 H   0  0
   -1.8442    5.4079   -3.1298 H   0  0
   -4.7941    3.7180   -1.5789 H   0  0
   -4.3243    3.5937   -3.3078 H   0  0
   -4.2434    5.1782   -2.4670 H   0  0
   -6.7338    8.8247    7.6557 H   0  0
   -6.6519    9.7648    9.1540 H   0  0
   -5.8892    8.1027    9.1089 H   0  0
  1  2  1  0
  2  7  2  0
  2  3  1  0
  3  4  2  0
  4  5  1  0
  5  6  2  0
  5 30  1  0
  6  7  1  0
  6  8  1  0
  8  9  2  0
  8 10  2  0
  8 11  1  0
 11 12  1  0
 12 13  1  0
 13 14  1  0
 14 15  1  0
 15 16  2  0
 15 17  1  0
 17 22  2  0
 17 18  1  0
 18 19  2  0
 19 20  1  0
 20 21  2  0
 20 23  1  0
 21 22  1  0
 23 24  2  0
 23 25  2  0
 23 26  1  0
 26 27  1  0
 27 28  1  0
 27 29  1  0
  1 31  1  0
  1 32  1  0
  1 33  1  0
  3 34  1  0
  4 35  1  0
  7 36  1  0
 11 37  1  0
 12 38  1  0
 12 39  1  0
 13 40  1  0
 13 41  1  0
 14 42  1  0
 18 43  1  0
 19 44  1  0
 21 45  1  0
 22 46  1  0
 26 47  1  0
 27 48  1  0
 28 49  1  0
 28 50  1  0
 28 51  1  0
 29 52  1  0
 29 53  1  0
 29 54  1  0
 30 55  1  0
 30 56  1  0
 30 57  1  0
M  END
> <Name>
ZINC25127966

> <reference>
BDB50146428

> <quality>
0.797

> <status>
decoy

$$$$
ZINC28934226
  SciTegic06061311253D

 60 62  0  0  1  0            999 V2000
    7.7679  -14.7336    3.6093 C   0  0
    7.3810  -13.7166    4.6850 C   0  0
    6.6061  -12.5885    4.0543 C   0  0
    7.2466  -11.4383    3.6656 C   0  0
    6.4679  -10.4446    3.0935 C   0  0
    4.8439  -11.1822    3.1352 S   0  0
    5.2651  -12.6977    3.8642 C   0  0
    4.3617  -13.8534    4.2095 C   0  0
    6.8721   -9.1283    2.5911 C   0  0
    8.0387   -8.7867    2.6496 O   0  0
    5.9519   -8.2963    2.0644 N   0  0
    6.3383   -7.0382    1.5842 N   0  0
    5.4181   -6.2062    1.0574 C   0  0
    4.2555   -6.5466    0.9991 O   0  0
    5.8337   -4.8529    0.5409 C   0  0
    4.6863   -4.2019   -0.1055 N   0  0
    4.3723   -4.8425   -1.3896 C   0  0
    5.5853   -4.7470   -2.3172 C   0  0
    4.9267   -2.7632   -0.2797 C   0  0
    3.6504   -2.0896   -0.7137 C   0  0
    2.6399   -2.7437   -0.8632 O   0  0
    3.6317   -0.7604   -0.9357 N   0  0
    2.4236   -0.1170   -1.2343 C   0  0
    1.2380   -0.5692   -0.6707 C   0  0
    0.0464    0.0640   -0.9658 C   0  0
    0.0300    1.1531   -1.8248 C   0  0
    1.2157    1.6101   -2.3879 C   0  0
    2.4112    0.9729   -2.0931 C   0  0
    1.2207    2.6825   -3.2262 O   0  0
   -0.0379    3.0626   -3.7930 C   0  0
   -1.0858    3.0753   -2.6719 C   0  0
   -1.1556    1.7595   -2.1103 O   0  0
    8.3908  -14.2432    2.8467 H   0  0
    6.8584  -15.1335    3.1372 H   0  0
    8.3336  -15.5574    4.0690 H   0  0
    8.2905  -13.3167    5.1572 H   0  0
    6.7579  -14.2077    5.4469 H   0  0
    8.3306  -11.3108    3.8022 H   0  0
    4.5824  -13.9953    5.2777 H   0  0
    4.8630  -14.6871    3.6961 H   0  0
    3.2925  -13.7479    3.9737 H   0  0
    4.9645   -8.5854    2.0149 H   0  0
    7.3256   -6.7491    1.6337 H   0  0
    6.1827   -4.2318    1.3790 H   0  0
    6.6466   -4.9722   -0.1905 H   0  0
    4.1231   -5.9005   -1.2205 H   0  0
    3.5151   -4.3336   -1.8546 H   0  0
    6.4433   -5.2564   -1.8542 H   0  0
    5.8357   -3.6895   -2.4874 H   0  0
    5.3509   -5.2265   -3.2790 H   0  0
    5.7004   -2.6098   -1.0464 H   0  0
    5.2638   -2.3296    0.6734 H   0  0
    4.5056   -0.2176   -0.8858 H   0  0
    1.2477   -1.4323    0.0112 H   0  0
   -0.8918   -0.2962   -0.5186 H   0  0
    3.3502    1.3314   -2.5401 H   0  0
    0.0428    4.0672   -4.2337 H   0  0
   -0.3323    2.3358   -4.5644 H   0  0
   -2.0667    3.3534   -3.0847 H   0  0
   -0.7866    3.7938   -1.8945 H   0  0
  1  2  1  0
  2  3  1  0
  3  7  2  0
  3  4  1  0
  4  5  2  0
  5  6  1  0
  5  9  1  0
  6  7  1  0
  7  8  1  0
  9 10  2  0
  9 11  1  0
 11 12  1  0
 12 13  1  0
 13 14  2  0
 13 15  1  0
 15 16  1  0
 16 17  1  0
 16 19  1  0
 17 18  1  0
 19 20  1  0
 20 21  2  0
 20 22  1  0
 22 23  1  0
 23 28  2  0
 23 24  1  0
 24 25  2  0
 25 26  1  0
 26 32  1  0
 26 27  2  0
 27 28  1  0
 27 29  1  0
 29 30  1  0
 30 31  1  0
 31 32  1  0
  1 33  1  0
  1 34  1  0
  1 35  1  0
  2 36  1  0
  2 37  1  0
  4 38  1  0
  8 39  1  0
  8 40  1  0
  8 41  1  0
 11 42  1  0
 12 43  1  0
 15 44  1  0
 15 45  1  0
 17 46  1  0
 17 47  1  0
 18 48  1  0
 18 49  1  0
 18 50  1  0
 19 51  1  0
 19 52  1  0
 22 53  1  0
 24 54  1  0
 25 55  1  0
 28 56  1  0
 30 57  1  0
 30 58  1  0
 31 59  1  0
 31 60  1  0
M  END
> <Name>
ZINC28934226

> <reference>
BDB50146428

> <quality>
0.791

> <status>
decoy

$$$$
ZINC29601567
  SciTegic06061311253D

 50 52  0  0  0  0            999 V2000
   -2.0859    5.0777    2.2445 C   0  0
   -1.1576    3.8633    2.3106 C   0  0
   -1.7765    2.7367    1.6078 N   0  0
   -2.7286    1.8707    2.3076 C   0  0
   -1.9658    0.7857    3.0704 C   0  0
   -1.3999    2.4421    0.0223 S   0  0
   -0.9506    3.6745   -0.5241 O   0  0
   -2.4926    1.7186   -0.5270 O   0  0
   -0.0163    1.3513    0.0095 C   0  0
    0.0021   -0.0041    0.0020 C   0  0
    1.2198   -0.6579   -0.0131 C   0  0
    2.3597    0.0756   -0.0201 C   0  0
    1.7251    1.7443   -0.0050 S   0  0
    3.7912   -0.3952   -0.0358 C   0  0
    4.2421   -0.5408   -1.4221 N   0  0
    5.4984   -0.9535   -1.6822 C   0  0
    6.2583   -1.2053   -0.7656 O   0  0
    5.9500   -1.0993   -3.0702 C   0  0
    7.1697   -1.4937   -3.5287 C   0  0
    7.4045   -1.5730   -4.9078 C   0  0
    8.5900   -1.9611   -5.5986 C   0  0
    8.5991   -1.9608   -6.9177 N   0  0
    7.5367   -1.6097   -7.6336 C   0  0
    6.4051   -1.2387   -7.0492 N   0  0
    6.3126   -1.2119   -5.7365 C   0  0
    5.0381   -0.7957   -4.5742 S   0  0
    7.6118   -1.6314   -9.0139 N   0  0
    9.6951   -2.3257   -4.9077 O   0  0
   10.8430   -2.7013   -5.6713 C   0  0
   -3.0466    4.8325    2.7208 H   0  0
   -2.2580    5.3522    1.1933 H   0  0
   -1.6218    5.9240    2.7720 H   0  0
   -0.1973    4.1093    1.8338 H   0  0
   -0.9854    3.5888    3.3618 H   0  0
   -3.3180    2.4709    3.0164 H   0  0
   -3.4026    1.3993    1.5772 H   0  0
   -1.2920    1.2553    3.8022 H   0  0
   -1.3759    0.1845    2.3629 H   0  0
   -2.6801    0.1351    3.5961 H   0  0
   -0.9380   -0.5752    0.0078 H   0  0
    1.2632   -1.7570   -0.0193 H   0  0
    4.4252    0.3410    0.4800 H   0  0
    3.8648   -1.3657    0.4768 H   0  0
    3.5990   -0.3278   -2.1979 H   0  0
    7.9693   -1.7496   -2.8179 H   0  0
    8.4823   -1.9168   -9.4848 H   0  0
    6.7910   -1.3601   -9.5739 H   0  0
   11.0807   -1.8421   -6.3157 H   0  0
   10.5255   -3.5316   -6.3192 H   0  0
   11.6991   -2.9839   -5.0410 H   0  0
  1  2  1  0
  2  3  1  0
  3  4  1  0
  3  6  1  0
  4  5  1  0
  6  7  2  0
  6  8  2  0
  6  9  1  0
  9 13  1  0
  9 10  2  0
 10 11  1  0
 11 12  2  0
 12 13  1  0
 12 14  1  0
 14 15  1  0
 15 16  1  0
 16 17  2  0
 16 18  1  0
 18 26  1  0
 18 19  2  0
 19 20  1  0
 20 25  1  0
 20 21  2  0
 21 22  1  0
 21 28  1  0
 22 23  2  0
 23 24  1  0
 23 27  1  0
 24 25  2  0
 25 26  1  0
 28 29  1  0
  1 30  1  0
  1 31  1  0
  1 32  1  0
  2 33  1  0
  2 34  1  0
  4 35  1  0
  4 36  1  0
  5 37  1  0
  5 38  1  0
  5 39  1  0
 10 40  1  0
 11 41  1  0
 14 42  1  0
 14 43  1  0
 15 44  1  0
 19 45  1  0
 27 46  1  0
 27 47  1  0
 29 48  1  0
 29 49  1  0
 29 50  1  0
M  END
> <Name>
ZINC29601567

> <reference>
BDB50146428

> <quality>
0.790

> <status>
decoy

$$$$
ZINC30395474
  SciTegic06061311253D

 59 61  0  0  1  0            999 V2000
   -2.9758    0.7424   -1.3984 C   0  0
   -2.5068    0.9663    0.0406 C   0  0  1  0  0  0
   -1.2154    1.7430    0.0330 C   0  0
   -0.0118    1.0821    0.1967 C   0  0
    1.1738    1.7903    0.1845 C   0  0
    1.1560    3.1683    0.0128 C   0  0
   -0.0547    3.8297   -0.1460 C   0  0
   -1.2369    3.1157   -0.1328 C   0  0
    2.3555    3.8887   -0.0005 N   0  0
    3.4720    3.3293   -0.5075 C   0  0
    3.4172    2.2402   -1.0385 O   0  0
    4.7884    4.0570   -0.4146 C   0  0  2  0  0  0
    5.4014    4.5771   -1.7163 C   0  0
    6.0192    3.3693   -1.0088 C   0  0
   -3.5260    1.7205    0.7746 N   0  0
   -4.5596    1.0738    1.3490 C   0  0
   -4.6463   -0.1368    1.2578 O   0  0
   -5.5770    1.8268    2.0817 C   0  0
   -6.6122    1.1791    2.6569 C   0  0
   -7.6349    1.9359    3.3934 C   0  0
   -7.5374    3.3284    3.4997 C   0  0
   -8.4975    4.0323    4.1905 C   0  0
   -9.5629    3.3628    4.7821 C   0  0
   -9.6643    1.9803    4.6795 C   0  0
   -8.7122    1.2674    3.9859 C   0  0
  -11.0175    1.1394    5.4322 S   0  0
  -12.1947    1.8316    5.0396 O   0  0
  -10.8273   -0.2456    5.1775 O   0  0
  -10.8717    1.3440    7.0690 N   0  0
  -10.9929    2.6818    7.6537 C   0  0
  -10.5074    4.0616    5.4619 O   0  0
  -10.3427    5.4795    5.5283 C   0  0
   -2.2113    0.1759   -1.9504 H   0  0
   -3.1361    1.7142   -1.8883 H   0  0
   -3.9184    0.1755   -1.3936 H   0  0
   -2.3470   -0.0060    0.5296 H   0  0
    0.0013   -0.0089    0.3368 H   0  0
    2.1312    1.2635    0.3106 H   0  0
   -0.0721    4.9211   -0.2822 H   0  0
   -2.1965    3.6395   -0.2543 H   0  0
    2.3852    4.8465    0.3772 H   0  0
    4.5398    4.5011    0.5606 H   0  0
    5.9936    5.4886   -1.5477 H   0  0
    4.8088    4.2716   -2.5912 H   0  0
    5.7523    2.4282   -1.5119 H   0  0
    6.9360    3.6454   -0.4672 H   0  0
   -3.4526    2.7450    0.8517 H   0  0
   -5.4986    2.9209    2.1640 H   0  0
   -6.6906    0.0850    2.5745 H   0  0
   -6.6950    3.8591    3.0320 H   0  0
   -8.4218    5.1265    4.2747 H   0  0
   -8.7982    0.1743    3.8976 H   0  0
  -10.6958    0.5307    7.6760 H   0  0
  -11.9733    3.0440    7.3108 H   0  0
  -10.2367    3.2819    7.1264 H   0  0
  -10.8824    2.7228    8.7474 H   0  0
  -10.3014    5.8352    4.4882 H   0  0
   -9.3574    5.6555    5.9845 H   0  0
  -11.1454    5.9749    6.0942 H   0  0
  1  2  1  0
  2  3  1  0
  2 15  1  0
  3  8  2  0
  3  4  1  0
  4  5  2  0
  5  6  1  0
  6  7  2  0
  6  9  1  0
  7  8  1  0
  9 10  1  0
 10 11  2  0
 10 12  1  0
 12 14  1  0
 12 13  1  0
 13 14  1  0
 15 16  1  0
 16 17  2  0
 16 18  1  0
 18 19  2  0
 19 20  1  0
 20 25  2  0
 20 21  1  0
 21 22  2  0
 22 23  1  0
 23 24  2  0
 23 31  1  0
 24 25  1  0
 24 26  1  0
 26 27  2  0
 26 28  2  0
 26 29  1  0
 29 30  1  0
 31 32  1  0
  1 33  1  0
  1 34  1  0
  1 35  1  0
  2 36  1  0
  4 37  1  0
  5 38  1  0
  7 39  1  0
  8 40  1  0
  9 41  1  0
 12 42  1  0
 13 43  1  0
 13 44  1  0
 14 45  1  0
 14 46  1  0
 15 47  1  0
 18 48  1  0
 19 49  1  0
 21 50  1  0
 22 51  1  0
 25 52  1  0
 29 53  1  0
 30 54  1  0
 30 55  1  0
 30 56  1  0
 32 57  1  0
 32 58  1  0
 32 59  1  0
M  END
> <Name>
ZINC30395474

> <reference>
BDB50146428

> <quality>
0.786

> <status>
decoy

$$$$
ZINC23986352
  SciTegic06061311253D

 55 57  0  0  0  0            999 V2000
   -1.7190    1.2853    0.1650 C   0  0
   -1.5698   -0.2143    0.1540 C   0  0
   -1.6019   -0.8345    1.1958 O   0  0
   -1.4008   -0.8661   -1.0135 N   0  0
   -1.1558   -2.2421   -1.0165 C   0  0
   -0.4252   -2.8185    0.0166 C   0  0
   -0.1863   -4.1752    0.0203 C   0  0
   -0.6694   -4.9708   -1.0226 C   0  0
   -1.3985   -4.3866   -2.0623 C   0  0
   -1.6384   -3.0301   -2.0555 C   0  0
   -0.4101   -6.4215   -1.0262 C   0  0
    0.2675   -6.9624   -0.0595 N   0  0
    0.6189   -8.3172   -0.1229 N   0  0
    0.8773   -9.0280    1.0188 C   0  0
    1.2082  -10.3323    0.9328 C   0  0
    1.1799  -10.6136   -0.8300 S   0  0
    0.7184   -8.9650   -1.3383 C   0  0
    0.5257   -8.4946   -2.5447 N   0  0
    0.6880   -9.3712   -3.7073 C   0  0
   -0.6308   -9.4438   -4.4794 C   0  0
   -0.9396   -8.1563   -5.0170 O   0  0
   -2.1590   -8.1142   -5.7608 C   0  0
    0.7882   -8.3695    2.3406 C   0  0
    1.0977   -7.0121    2.4674 C   0  0
    1.0118   -6.3923    3.6952 C   0  0
    0.6276   -7.1137    4.8170 C   0  0
    0.3201   -8.4766    4.7023 C   0  0
    0.4020   -9.1024    3.4583 C   0  0
   -0.0881   -9.2464    5.8931 C   0  0
   -0.1587   -8.6987    6.9763 O   0  0
   -0.3827  -10.5567    5.7801 N   0  0
    0.5501   -6.4999    6.0245 O   0  0
   -0.9187    1.6550    0.8229 H   0  0
   -2.6790    1.4810    0.6651 H   0  0
   -1.6733    1.7329   -0.8388 H   0  0
   -1.4522   -0.3502   -1.9035 H   0  0
   -0.0374   -2.1903    0.8321 H   0  0
    0.3838   -4.6318    0.8428 H   0  0
   -1.7802   -5.0092   -2.8849 H   0  0
   -2.2125   -2.5697   -2.8731 H   0  0
   -0.7906   -7.0462   -1.8478 H   0  0
    1.4370  -11.0416    1.7418 H   0  0
    0.9711  -10.3795   -3.3710 H   0  0
    1.4744   -8.9691   -4.3629 H   0  0
   -0.5358  -10.1701   -5.3001 H   0  0
   -1.4370   -9.7602   -3.8012 H   0  0
   -2.9683   -8.4370   -5.0893 H   0  0
   -2.0737   -8.8445   -6.5790 H   0  0
   -2.3572   -7.1067   -6.1554 H   0  0
    1.4110   -6.4366    1.5838 H   0  0
    1.2486   -5.3220    3.7865 H   0  0
    0.1621  -10.1715    3.3614 H   0  0
   -0.3229  -11.0207    4.8625 H   0  0
   -0.6676  -11.0941    6.6113 H   0  0
   -0.0738   -5.7437    5.8865 H   0  0
  1  2  1  0
  2  3  2  0
  2  4  1  0
  4  5  1  0
  5 10  2  0
  5  6  1  0
  6  7  2  0
  7  8  1  0
  8  9  2  0
  8 11  1  0
  9 10  1  0
 11 12  2  0
 12 13  1  0
 13 17  1  0
 13 14  1  0
 14 15  2  0
 14 23  1  0
 15 16  1  0
 16 17  1  0
 17 18  2  0
 18 19  1  0
 19 20  1  0
 20 21  1  0
 21 22  1  0
 23 28  2  0
 23 24  1  0
 24 25  2  0
 25 26  1  0
 26 27  2  0
 26 32  1  0
 27 28  1  0
 27 29  1  0
 29 30  2  0
 29 31  1  0
  1 33  1  0
  1 34  1  0
  1 35  1  0
  4 36  1  0
  6 37  1  0
  7 38  1  0
  9 39  1  0
 10 40  1  0
 11 41  1  0
 15 42  1  0
 19 43  1  0
 19 44  1  0
 20 45  1  0
 20 46  1  0
 22 47  1  0
 22 48  1  0
 22 49  1  0
 24 50  1  0
 25 51  1  0
 28 52  1  0
 31 53  1  0
 31 54  1  0
 32 55  1  0
M  END
> <Name>
ZINC23986352

> <reference>
BDB50146428

> <quality>
0.782

> <status>
decoy

$$$$
ZINC26225750
  SciTegic06061311253D

 61 64  0  0  0  0            999 V2000
  -10.9640    2.1557   -1.3136 C   0  0
   -9.8742    3.0524   -0.7227 C   0  0  1  0  0  0
  -10.3778    4.4960   -0.6640 C   0  0
   -9.5306    2.5743    0.6895 C   0  0
   -8.9371    1.2367    0.6214 N   0  0
   -9.5943    0.0383    0.6699 C   0  0
   -8.6952   -0.9008    0.5833 N   0  0
   -7.5239   -0.3821    0.4787 N   0  0
   -7.6134    0.9276    0.4930 C   0  0
   -6.2773    2.0704    0.3762 S   0  0
   -4.8884    0.9174    0.2430 C   0  0
   -3.6012    1.6927    0.1289 C   0  0
   -3.6209    2.9055    0.1367 O   0  0
   -2.4280    1.0385    0.0180 N   0  0
   -1.2237    1.7542    0.0232 C   0  0
   -0.1483    1.3087   -0.7339 C   0  0
    1.0434    2.0091   -0.7248 C   0  0
    1.1649    3.1599    0.0336 C   0  0
    0.0842    3.6136    0.7901 C   0  0
   -1.1076    2.9122    0.7809 C   0  0
    0.4646    4.7592    1.4395 O   0  0
    1.5810    5.2324    0.6723 C   0  0  2  0  0  0
    2.2118    4.0271    0.2164 O   0  0
    2.5334    6.0687    1.5331 C   0  0
    3.0609    7.1552    0.5595 C   0  0
    1.8179    7.4731   -0.3098 C   0  0
    1.1262    6.1040   -0.4981 C   0  0
  -11.0821   -0.1595    0.8050 C   0  0
  -11.4544   -0.2326    2.2872 C   0  0
  -12.9422   -0.4304    2.4223 C   0  0
  -13.6365   -0.5056    1.4306 O   0  0
  -13.5014   -0.5238    3.6450 N   0  0
  -11.2116    2.4984   -2.3291 H   0  0
  -11.8629    2.2042   -0.6815 H   0  0
  -10.6026    1.1176   -1.3561 H   0  0
   -8.9757    3.0030   -1.3553 H   0  0
  -11.2762    4.5466   -0.0313 H   0  0
  -10.6249    4.8408   -1.6789 H   0  0
   -9.5947    5.1413   -0.2392 H   0  0
  -10.4460    2.5379    1.2983 H   0  0
   -8.8128    3.2704    1.1479 H   0  0
   -5.0171    0.2883   -0.6501 H   0  0
   -4.8537    0.2799    1.1388 H   0  0
   -2.4169    0.0124   -0.0706 H   0  0
   -0.2449    0.3970   -1.3418 H   0  0
    1.8958    1.6512   -1.3210 H   0  0
   -1.9624    3.2710    1.3729 H   0  0
    3.3665    5.4468    1.8926 H   0  0
    1.9827    6.5384    2.3614 H   0  0
    3.3726    8.0494    1.1191 H   0  0
    3.8685    6.7478   -0.0664 H   0  0
    2.1297    7.8760   -1.2847 H   0  0
    1.1492    8.1641    0.2244 H   0  0
    0.0339    6.2305   -0.4700 H   0  0
    1.4457    5.6516   -1.4485 H   0  0
  -11.6085    0.6852    0.3365 H   0  0
  -11.3753   -1.0957    0.3075 H   0  0
  -11.1629    0.7034    2.7862 H   0  0
  -10.9287   -1.0774    2.7562 H   0  0
  -12.9118   -0.4600    4.4872 H   0  0
  -14.5183   -0.6590    3.7373 H   0  0
  1  2  1  0
  2  3  1  0
  2  4  1  0
  4  5  1  0
  5  9  1  0
  5  6  1  0
  6  7  2  0
  6 28  1  0
  7  8  1  0
  8  9  2  0
  9 10  1  0
 10 11  1  0
 11 12  1  0
 12 13  2  0
 12 14  1  0
 14 15  1  0
 15 20  2  0
 15 16  1  0
 16 17  2  0
 17 18  1  0
 18 23  1  0
 18 19  2  0
 19 20  1  0
 19 21  1  0
 21 22  1  0
 22 27  1  0
 22 23  1  0
 22 24  1  0
 24 25  1  0
 25 26  1  0
 26 27  1  0
 28 29  1  0
 29 30  1  0
 30 31  2  0
 30 32  1  0
  1 33  1  0
  1 34  1  0
  1 35  1  0
  2 36  1  0
  3 37  1  0
  3 38  1  0
  3 39  1  0
  4 40  1  0
  4 41  1  0
 11 42  1  0
 11 43  1  0
 14 44  1  0
 16 45  1  0
 17 46  1  0
 20 47  1  0
 24 48  1  0
 24 49  1  0
 25 50  1  0
 25 51  1  0
 26 52  1  0
 26 53  1  0
 27 54  1  0
 27 55  1  0
 28 56  1  0
 28 57  1  0
 29 58  1  0
 29 59  1  0
 32 60  1  0
 32 61  1  0
M  END
> <Name>
ZINC26225750

> <reference>
BDB50146428

> <quality>
0.781

> <status>
decoy

$$$$
ZINC29688286
  SciTegic06061311253D

 55 57  0  0  0  0            999 V2000
   -0.5009   14.7114    1.0722 C   0  0
   -0.1378   14.2557   -0.3425 C   0  0
   -1.1501   13.3356   -0.8294 O   0  0
   -0.9782   12.8373   -2.0705 C   0  0
   -0.0084   13.1632   -2.7276 O   0  0
   -1.9614   11.9019   -2.6280 C   0  0
   -3.0540   12.3564   -3.3514 C   0  0
   -3.9268   11.4223   -3.8386 C   0  0
   -3.2082    9.8875   -3.2854 S   0  0
   -1.8293   10.5209   -2.4478 C   0  0
   -0.8404    9.8317   -1.7735 N   0  0
   -0.8828    8.4862   -1.7062 C   0  0
   -1.7892    7.8809   -2.2377 O   0  0
    0.1962    7.7342   -0.9705 C   0  0
   -0.0753    6.2964   -1.0418 N   0  0
    0.7932    5.3904   -0.4286 C   0  0
    1.9149    5.8521    0.2497 C   0  0
    2.7736    4.9564    0.8565 C   0  0
    2.5174    3.5997    0.7961 C   0  0
    1.4016    3.1318    0.1150 C   0  0
    0.5369    4.0281   -0.4956 C   0  0
    1.1458    1.7542    0.0495 N   0  0
    0.7174    1.0496   -1.0202 C   0  0
    0.6105   -0.1984   -0.6455 N   0  0
    0.9420   -0.3308    0.5881 N   0  0
    1.2805    0.8107    1.0832 N   0  0
    0.4178    1.5998   -2.3908 C   0  0
   -5.1449   11.6309   -4.6243 C   0  0
   -5.4911   12.7591   -4.9224 O   0  0
   -5.8826   10.5736   -5.0174 N   0  0
   -7.1012   10.7823   -5.8033 C   0  0
   -3.2723   13.8280   -3.5920 C   0  0
   -0.5519   13.8375    1.7383 H   0  0
   -1.4777   15.2170    1.0563 H   0  0
    0.2656   15.4085    1.4417 H   0  0
   -0.0874   15.1302   -1.0079 H   0  0
    0.8390   13.7501   -0.3267 H   0  0
   -0.0705   10.3459   -1.3221 H   0  0
    1.1715    7.9460   -1.4330 H   0  0
    0.2131    8.0516    0.0826 H   0  0
   -0.9066    5.9536   -1.5441 H   0  0
    2.1190    6.9317    0.3034 H   0  0
    3.6633    5.3237    1.3890 H   0  0
    3.1983    2.8896    1.2882 H   0  0
   -0.3502    3.6599   -1.0318 H   0  0
    1.3559    2.1114   -2.6519 H   0  0
   -0.3083    2.3970   -2.1734 H   0  0
    0.0766    0.8759   -3.1455 H   0  0
   -5.5896    9.6189   -4.7653 H   0  0
   -6.7778   11.3500   -6.6883 H   0  0
   -7.7235   11.4544   -5.1942 H   0  0
   -7.6245    9.8521   -6.0696 H   0  0
   -2.3458   14.1693   -4.0769 H   0  0
   -3.2897   14.2730   -2.5862 H   0  0
   -4.1726   14.0636   -4.1784 H   0  0
  1  2  1  0
  2  3  1  0
  3  4  1  0
  4  5  2  0
  4  6  1  0
  6 10  2  0
  6  7  1  0
  7  8  2  0
  7 32  1  0
  8  9  1  0
  8 28  1  0
  9 10  1  0
 10 11  1  0
 11 12  1  0
 12 13  2  0
 12 14  1  0
 14 15  1  0
 15 16  1  0
 16 21  2  0
 16 17  1  0
 17 18  2  0
 18 19  1  0
 19 20  2  0
 20 21  1  0
 20 22  1  0
 22 26  1  0
 22 23  1  0
 23 24  2  0
 23 27  1  0
 24 25  1  0
 25 26  2  0
 28 29  2  0
 28 30  1  0
 30 31  1  0
  1 33  1  0
  1 34  1  0
  1 35  1  0
  2 36  1  0
  2 37  1  0
 11 38  1  0
 14 39  1  0
 14 40  1  0
 15 41  1  0
 17 42  1  0
 18 43  1  0
 19 44  1  0
 21 45  1  0
 27 46  1  0
 27 47  1  0
 27 48  1  0
 30 49  1  0
 31 50  1  0
 31 51  1  0
 31 52  1  0
 32 53  1  0
 32 54  1  0
 32 55  1  0
M  END
> <Name>
ZINC29688286

> <reference>
BDB50146428

> <quality>
0.780

> <status>
decoy

$$$$
ZINC29901968
  SciTegic06061311253D

 54 56  0  0  0  0            999 V2000
   -4.7014    1.2762    1.5011 C   0  0
   -3.5758    1.9252    0.7377 C   0  0
   -2.3235    1.3398    0.7252 C   0  0
   -1.2866    1.9357    0.0233 C   0  0
   -1.5091    3.1274   -0.6636 C   0  0
   -2.7677    3.7054   -0.6515 C   0  0
   -3.7981    3.1051    0.0507 C   0  0
   -5.3732    3.8348    0.0699 Cl  0  0
   -0.4942    3.7188   -1.3484 O   0  0
   -0.7952    4.9387   -2.0291 C   0  0
   -0.0162    1.3436    0.0094 N   0  0
    0.1016    0.0010    0.0157 C   0  0
   -0.8869   -0.6941    0.1209 O   0  0
    1.4614   -0.6367   -0.1081 C   0  0
    1.3219   -2.0947   -0.0754 N   0  0
    2.4562   -2.9086   -0.1749 C   0  0
    3.7128   -2.3369   -0.3103 C   0  0
    4.8320   -3.1428   -0.4030 C   0  0
    4.7015   -4.5188   -0.3722 C   0  0
    3.4515   -5.0959   -0.2428 C   0  0
    2.3256   -4.2953   -0.1439 C   0  0
    1.0956   -4.8616   -0.0165 O   0  0
    1.0380   -6.2892    0.0078 C   0  0
    6.4280   -2.4148   -0.5683 S   0  0
    6.3358   -1.1058   -0.0230 O   0  0
    7.3629   -3.3737   -0.0934 O   0  0
    6.7180   -2.2331   -2.1885 N   0  0
    5.8927   -1.3195   -2.9825 C   0  0  2  0  0  0
    5.6129   -1.7033   -4.4369 C   0  0
    6.5761   -0.5577   -4.1198 C   0  0
   -5.4992    1.1226    0.7595 H   0  0
   -5.0533    2.0469    2.2027 H   0  0
   -4.4143    0.3439    2.0095 H   0  0
   -2.1496    0.4013    1.2720 H   0  0
   -2.9483    4.6416   -1.2000 H   0  0
   -1.1758    5.6331   -1.2656 H   0  0
   -1.6204    4.7118   -2.7201 H   0  0
    0.0738    5.3559   -2.5590 H   0  0
    0.8273    1.9345   -0.0056 H   0  0
    1.9231   -0.3343   -1.0596 H   0  0
    2.0978   -0.3112    0.7280 H   0  0
    0.3891   -2.5208    0.0208 H   0  0
    3.8186   -1.2425   -0.3439 H   0  0
    5.5945   -5.1563   -0.4508 H   0  0
    3.3513   -6.1911   -0.2184 H   0  0
    1.6778   -6.6103    0.8430 H   0  0
    1.5051   -6.6335   -0.9267 H   0  0
    0.0121   -6.6720    0.1129 H   0  0
    7.4787   -2.7624   -2.6380 H   0  0
    5.2726   -1.0372   -2.1189 H   0  0
    4.6358   -1.3262   -4.7731 H   0  0
    6.1543   -2.6168   -4.7240 H   0  0
    7.6244   -0.8681   -4.2408 H   0  0
    6.1057    0.4222   -4.2883 H   0  0
  1  2  1  0
  2  7  2  0
  2  3  1  0
  3  4  2  0
  4  5  1  0
  4 11  1  0
  5  6  2  0
  5  9  1  0
  6  7  1  0
  7  8  1  0
  9 10  1  0
 11 12  1  0
 12 13  2  0
 12 14  1  0
 14 15  1  0
 15 16  1  0
 16 21  2  0
 16 17  1  0
 17 18  2  0
 18 19  1  0
 18 24  1  0
 19 20  2  0
 20 21  1  0
 21 22  1  0
 22 23  1  0
 24 25  2  0
 24 26  2  0
 24 27  1  0
 27 28  1  0
 28 30  1  0
 28 29  1  0
 29 30  1  0
  1 31  1  0
  1 32  1  0
  1 33  1  0
  3 34  1  0
  6 35  1  0
 10 36  1  0
 10 37  1  0
 10 38  1  0
 11 39  1  0
 14 40  1  0
 14 41  1  0
 15 42  1  0
 17 43  1  0
 19 44  1  0
 20 45  1  0
 23 46  1  0
 23 47  1  0
 23 48  1  0
 27 49  1  0
 28 50  1  0
 29 51  1  0
 29 52  1  0
 30 53  1  0
 30 54  1  0
M  END
> <Name>
ZINC29901968

> <reference>
BDB50146428

> <quality>
0.779

> <status>
decoy

$$$$
ZINC22520494
  SciTegic06061311253D

 55 58  0  0  0  0            999 V2000
   -1.4333   -0.5336    0.0129 C   0  0
    0.0021   -0.0041    0.0020 C   0  0
   -0.0176    1.4478    0.0100 O   0  0
    1.1751    2.0761    0.0020 C   0  0
    2.2035    1.4279   -0.0113 O   0  0
    1.2321    3.5448    0.0093 C   0  0
    1.2684    4.3617    1.0982 C   0  0
    1.3202    5.6406    0.7032 O   0  0
    1.3110    5.7413   -0.6375 C   0  0
    1.2555    4.4411   -1.1599 C   0  0
    1.2356    4.2685   -2.5477 C   0  0
    1.2709    5.3526   -3.3193 N   0  0
    1.3225    6.5597   -2.7882 C   0  0
    1.3427    6.7641   -1.4881 N   0  0
    1.3602    7.7528   -3.7080 C   0  0
    2.7402    8.0828   -4.0164 O   0  0
    2.9492    9.1296   -4.8302 C   0  0
    2.0102    9.7496   -5.2704 O   0  0
    4.3551    9.5315   -5.1949 C   0  0
    4.3161   10.6642   -6.0652 O   0  0
    5.5097   11.1567   -6.4913 C   0  0
    6.6927   10.5605   -6.0790 C   0  0
    7.9053   11.0596   -6.5114 C   0  0
    7.9404   12.1586   -7.3593 C   0  0
    6.7561   12.7546   -7.7713 C   0  0
    5.5439   12.2515   -7.3425 C   0  0
    6.7974   13.9466   -8.6918 C   0  0
    8.0309   14.7935   -8.3768 C   0  0
    9.2499   13.9144   -8.2991 C   0  0
   10.3183   14.3350   -8.6901 O   0  0
    9.1683   12.6673   -7.8003 N   0  0
    1.1807    3.0028   -3.1046 N   0  0
    1.2558    3.8969    2.5316 C   0  0
   -1.9662   -0.1699   -0.8781 H   0  0
   -1.9490   -0.1796    0.9178 H   0  0
   -1.4191   -1.6335    0.0068 H   0  0
    0.5341   -0.3680    0.8934 H   0  0
    0.5178   -0.3581   -0.9028 H   0  0
    0.8237    7.5156   -4.6386 H   0  0
    0.8797    8.6115   -3.2164 H   0  0
    4.9112    9.7903   -4.2818 H   0  0
    4.8561    8.6954   -5.7047 H   0  0
    6.6646    9.6898   -5.4073 H   0  0
    8.8431   10.5868   -6.1843 H   0  0
    4.6055   12.7187   -7.6758 H   0  0
    5.8910   14.5532   -8.5487 H   0  0
    6.8466   13.6024   -9.7354 H   0  0
    7.8882   15.3052   -7.4136 H   0  0
    8.1717   15.5435   -9.1691 H   0  0
   10.0146   12.0830   -7.7425 H   0  0
    1.1543    2.1794   -2.4863 H   0  0
    1.1663    2.8831   -4.1275 H   0  0
    2.1084    3.2031    2.5734 H   0  0
    0.3519    3.2719    2.5803 H   0  0
    1.2898    4.6882    3.2950 H   0  0
  1  2  1  0
  2  3  1  0
  3  4  1  0
  4  5  2  0
  4  6  1  0
  6 10  1  0
  6  7  2  0
  7  8  1  0
  7 33  1  0
  8  9  1  0
  9 14  2  0
  9 10  1  0
 10 11  2  0
 11 12  1  0
 11 32  1  0
 12 13  2  0
 13 14  1  0
 13 15  1  0
 15 16  1  0
 16 17  1  0
 17 18  2  0
 17 19  1  0
 19 20  1  0
 20 21  1  0
 21 26  2  0
 21 22  1  0
 22 23  2  0
 23 24  1  0
 24 31  1  0
 24 25  2  0
 25 26  1  0
 25 27  1  0
 27 28  1  0
 28 29  1  0
 29 30  2  0
 29 31  1  0
  1 34  1  0
  1 35  1  0
  1 36  1  0
  2 37  1  0
  2 38  1  0
 15 39  1  0
 15 40  1  0
 19 41  1  0
 19 42  1  0
 22 43  1  0
 23 44  1  0
 26 45  1  0
 27 46  1  0
 27 47  1  0
 28 48  1  0
 28 49  1  0
 31 50  1  0
 32 51  1  0
 32 52  1  0
 33 53  1  0
 33 54  1  0
 33 55  1  0
M  END
> <Name>
ZINC22520494

> <reference>
BDB50146428

> <quality>
0.776

> <status>
decoy

$$$$
ZINC28453255
  SciTegic06061311253D

 48 49  0  0  1  0            999 V2000
    1.7764    2.8246   -0.9291 C   0  0
    1.3960    1.9824   -0.0006 C   0  0
   -0.0178    1.4608    0.0101 C   0  0
    0.0021   -0.0041    0.0020 N   0  0
    0.1055   -0.6948   -1.2084 C   0  0
    1.3530   -0.9272   -1.7728 C   0  0
    1.4522   -1.6148   -2.9665 C   0  0
    0.3106   -2.0625   -3.6058 C   0  0
   -0.9338   -1.8288   -3.0500 C   0  0
   -1.0402   -1.1459   -1.8531 C   0  0
   -2.6027   -0.8516   -1.1562 Cl  0  0
   -0.0980   -0.8414    1.4272 S   0  0
    0.4895   -2.1138    1.1929 O   0  0
    0.3636    0.0348    2.4463 O   0  0
   -1.8075   -1.1268    1.7448 C   0  0
   -2.4167   -2.2733    1.2656 C   0  0
   -3.7584   -2.5053    1.5104 C   0  0
   -4.4984   -1.5936    2.2347 C   0  0
   -3.8902   -0.4349    2.7211 C   0  0
   -2.5341   -0.2098    2.4752 C   0  0
   -4.6762    0.5455    3.4979 C   0  0
   -4.1443    1.5528    3.9198 O   0  0
   -5.9828    0.3225    3.7383 O   0  0
   -6.6924    1.3284    4.5082 C   0  0
   -8.1308    0.9109    4.6753 C   0  0
   -8.5193   -0.1314    4.1933 O   0  0
   -8.9852    1.6962    5.3607 N   0  0
  -10.2715    1.3228    5.5102 C   0  0
  -10.6610    0.2779    5.0269 O   0  0
  -11.1259    2.1082    6.1955 N   0  0
    1.0639    3.1511   -1.7009 H   0  0
    2.8084    3.2053   -0.9369 H   0  0
    2.1085    1.6560    0.7712 H   0  0
   -0.5326    1.8150    0.9154 H   0  0
   -0.5507    1.8245   -0.8808 H   0  0
    2.2612   -0.5640   -1.2696 H   0  0
    2.4407   -1.8066   -3.4093 H   0  0
    0.3927   -2.6058   -4.5587 H   0  0
   -1.8398   -2.1867   -3.5609 H   0  0
   -1.8314   -3.0035    0.6874 H   0  0
   -4.2363   -3.4187    1.1267 H   0  0
   -5.5652   -1.7792    2.4285 H   0  0
   -2.0465    0.6967    2.8631 H   0  0
   -6.6502    2.2928    3.9807 H   0  0
   -6.2236    1.4310    5.4980 H   0  0
   -8.6551    2.5817    5.7703 H   0  0
  -10.7958    2.9938    6.6050 H   0  0
  -12.1090    1.8228    6.3098 H   0  0
  1  2  2  0
  2  3  1  0
  3  4  1  0
  4  5  1  0
  4 12  1  0
  5 10  2  0
  5  6  1  0
  6  7  2  0
  7  8  1  0
  8  9  2  0
  9 10  1  0
 10 11  1  0
 12 13  2  0
 12 14  2  0
 12 15  1  0
 15 20  2  0
 15 16  1  0
 16 17  2  0
 17 18  1  0
 18 19  2  0
 19 20  1  0
 19 21  1  0
 21 22  2  0
 21 23  1  0
 23 24  1  0
 24 25  1  0
 25 26  2  0
 25 27  1  0
 27 28  1  0
 28 29  2  0
 28 30  1  0
  1 31  1  0
  1 32  1  0
  2 33  1  0
  3 34  1  0
  3 35  1  0
  6 36  1  0
  7 37  1  0
  8 38  1  0
  9 39  1  0
 16 40  1  0
 17 41  1  0
 18 42  1  0
 20 43  1  0
 24 44  1  0
 24 45  1  0
 27 46  1  0
 30 47  1  0
 30 48  1  0
M  END
> <Name>
ZINC28453255

> <reference>
BDB50146428

> <quality>
0.769

> <status>
decoy

$$$$
ZINC28690419
  SciTegic06061311253D

 52 54  0  0  0  0            999 V2000
   -1.6552   16.0193   -0.0774 C   0  0
   -1.2471   14.5447   -0.0849 C   0  0
   -2.4413   13.7069    0.0501 N   0  0
   -2.3203   12.3218    0.0687 C   0  0
   -1.0578   11.7348    0.0804 C   0  0
   -0.9348   10.3646    0.1047 C   0  0
   -2.0792    9.5614    0.1053 C   0  0
   -3.3452   10.1537    0.0931 C   0  0
   -3.4616   11.5250    0.0751 C   0  0
   -4.8019   12.1530    0.0621 N   0  0
   -5.7980   11.4604   -0.0456 O   0  0
   -4.9087   13.3625    0.1592 O   0  0
   -1.9509    8.0919    0.1251 C   0  0
   -2.9471    7.3946    0.1307 O   0  0
   -0.7295    7.5222    0.1369 N   0  0
   -0.6076    6.1267    0.1557 N   0  0
    0.6138    5.5570    0.1675 C   0  0
    1.6100    6.2543    0.1618 O   0  0
    0.7420    4.0888    0.1872 C   0  0
   -0.3961    3.2740    0.1944 C   0  0
   -0.2220    1.9017    0.2077 C   0  0
    1.0586    1.3768    0.2253 C   0  0
    2.1185    2.1605    0.2183 N   0  0
    2.0097    3.4810    0.1997 C   0  0
    3.4610    4.4800    0.1911 S   0  0
    4.7307    3.1902    0.2135 C   0  0
    6.0956    3.8288    0.2096 C   0  0
    6.8587    4.2033    1.3393 C   0  0
    7.9915    4.7252    0.8109 C   0  0
    7.8615    4.6438   -0.5207 O   0  0
    6.8081    4.1398   -0.8346 N   0  0
    9.1661    5.2861    1.5702 C   0  0
   -2.1628   16.2555    0.8694 H   0  0
   -2.3373   16.2163   -0.9176 H   0  0
   -0.7590   16.6490   -0.1787 H   0  0
   -0.7399   14.3093   -1.0322 H   0  0
   -0.5649   14.3476    0.7552 H   0  0
   -3.3705   14.1438    0.1312 H   0  0
   -0.1578   12.3671    0.0702 H   0  0
    0.0628    9.9016    0.1236 H   0  0
   -4.2475    9.5245    0.0979 H   0  0
    0.1143    8.1128    0.1321 H   0  0
   -1.4514    5.5361    0.1605 H   0  0
   -1.4042    3.7141    0.1896 H   0  0
   -1.0950    1.2325    0.2043 H   0  0
    1.1944    0.2854    0.2455 H   0  0
    4.6155    2.5779    1.1200 H   0  0
    4.6226    2.5523   -0.6761 H   0  0
    6.5938    4.0958    2.4015 H   0  0
    9.4334    4.4531    2.2370 H   0  0
    8.6904    6.0414    2.2130 H   0  0
   10.0044    5.6691    0.9697 H   0  0
  1  2  1  0
  2  3  1  0
  3  4  1  0
  4  9  2  0
  4  5  1  0
  5  6  2  0
  6  7  1  0
  7  8  2  0
  7 13  1  0
  8  9  1  0
  9 10  1  0
 10 11  2  0
 10 12  2  0
 13 14  2  0
 13 15  1  0
 15 16  1  0
 16 17  1  0
 17 18  2  0
 17 19  1  0
 19 24  2  0
 19 20  1  0
 20 21  2  0
 21 22  1  0
 22 23  2  0
 23 24  1  0
 24 25  1  0
 25 26  1  0
 26 27  1  0
 27 31  2  0
 27 28  1  0
 28 29  2  0
 29 30  1  0
 29 32  1  0
 30 31  1  0
  1 33  1  0
  1 34  1  0
  1 35  1  0
  2 36  1  0
  2 37  1  0
  3 38  1  0
  5 39  1  0
  6 40  1  0
  8 41  1  0
 15 42  1  0
 16 43  1  0
 20 44  1  0
 21 45  1  0
 22 46  1  0
 26 47  1  0
 26 48  1  0
 28 49  1  0
 32 50  1  0
 32 51  1  0
 32 52  1  0
M  END
> <Name>
ZINC28690419

> <reference>
BDB50146428

> <quality>
0.768

> <status>
decoy

$$$$
ZINC28947752
  SciTegic06061311253D

 48 50  0  0  1  0            999 V2000
    0.2824   -3.0945    3.8603 C   0  0
   -1.1159   -2.5020    4.0459 C   0  0  2  0  0  0
   -2.1414   -3.6043    3.9804 C   0  0
   -2.7006   -3.8509    2.9327 O   0  0
   -2.4371   -4.3162    5.0859 N   0  0
   -3.4577   -5.2743    5.0495 C   0  0
   -4.2549   -5.4839    6.1672 C   0  0
   -5.2648   -6.4248    6.1271 C   0  0
   -5.4750   -7.1680    4.9775 C   0  0
   -4.6777   -6.9646    3.8640 C   0  0
   -3.6703   -6.0200    3.8979 C   0  0
   -4.9051   -7.7595    2.6363 N   0  0
   -4.2042   -7.5806    1.6564 O   0  0
   -5.7932   -8.5925    2.6060 O   0  0
   -6.4597   -8.0923    4.9424 F   0  0
   -1.4399   -1.2977    2.7341 S   0  0
   -0.2273   -0.0818    3.1287 C   0  0
    0.6316   -0.1318    4.1213 N   0  0
    1.3673    0.9217    4.1236 N   0  0
    1.0271    1.7090    3.1269 C   0  0
   -0.0032    1.0876    2.4565 N   0  0
   -0.7144    1.5797    1.2740 C   0  0
   -0.0066    1.0857    0.0108 C   0  0
   -0.7382    1.5919   -1.2055 C   0  0
   -1.7283    2.2800   -1.0749 O   0  0
   -0.2923    1.2799   -2.4385 N   0  0
    1.6324    3.0078    2.7912 C   0  0
    2.4453    3.8063    3.5556 C   0  0
    2.8994    4.9910    3.0209 C   0  0
    2.5217    5.3379    1.7633 C   0  0
    1.4938    3.9585    1.2863 S   0  0
    0.3434   -3.5934    2.8818 H   0  0
    0.4804   -3.8263    4.6573 H   0  0
    1.0314   -2.2904    3.9080 H   0  0
   -1.1758   -2.0032    5.0245 H   0  0
   -1.9124   -4.1555    5.9575 H   0  0
   -4.0820   -4.9008    7.0838 H   0  0
   -5.9028   -6.5842    7.0089 H   0  0
   -3.0370   -5.8588    3.0131 H   0  0
   -1.7482    1.2041    1.2850 H   0  0
   -0.7238    2.6796    1.2817 H   0  0
    0.0028   -0.0142    0.0008 H   0  0
    1.0272    1.4613   -0.0011 H   0  0
    0.5485    0.6955   -2.5495 H   0  0
   -0.7924    1.6259   -3.2698 H   0  0
    2.7285    3.5059    4.5752 H   0  0
    3.5600    5.6485    3.6051 H   0  0
    2.7822    6.2377    1.1867 H   0  0
  1  2  1  0
  2  3  1  0
  2 16  1  0
  3  4  2  0
  3  5  1  0
  5  6  1  0
  6 11  2  0
  6  7  1  0
  7  8  2  0
  8  9  1  0
  9 10  2  0
  9 15  1  0
 10 11  1  0
 10 12  1  0
 12 13  2  0
 12 14  2  0
 16 17  1  0
 17 21  1  0
 17 18  2  0
 18 19  1  0
 19 20  2  0
 20 21  1  0
 20 27  1  0
 21 22  1  0
 22 23  1  0
 23 24  1  0
 24 25  2  0
 24 26  1  0
 27 31  1  0
 27 28  2  0
 28 29  1  0
 29 30  2  0
 30 31  1  0
  1 32  1  0
  1 33  1  0
  1 34  1  0
  2 35  1  0
  5 36  1  0
  7 37  1  0
  8 38  1  0
 11 39  1  0
 22 40  1  0
 22 41  1  0
 23 42  1  0
 23 43  1  0
 26 44  1  0
 26 45  1  0
 28 46  1  0
 29 47  1  0
 30 48  1  0
M  END
> <Name>
ZINC28947752

> <reference>
BDB50146428

> <quality>
0.765

> <status>
decoy

$$$$
ZINC27322143
  SciTegic06061311253D

 47 49  0  0  0  0            999 V2000
   -1.9418   10.2938    0.8183 C   0  0
   -2.0878   11.6485    1.0503 C   0  0
   -1.1161   12.3383    1.7532 C   0  0
   -0.0016   11.6703    2.2285 C   0  0
    0.1404   10.3145    2.0008 C   0  0
   -0.8308    9.6258    1.2983 C   0  0
   -0.6753    8.1475    1.0504 C   0  0
   -1.3164    7.3674    2.1999 C   0  0
   -1.1652    5.9303    1.9589 N   0  0
   -1.6570    5.0428    2.8461 C   0  0
   -2.4584    5.5949    4.2546 S   0  0
   -1.5180    3.7207    2.6243 N   0  0
   -0.8622    3.2689    1.4717 N   0  0
   -0.7232    1.9468    1.2500 C   0  0
   -1.1657    1.1482    2.0483 O   0  0
   -0.0178    1.4608    0.0101 C   0  0
    0.0021   -0.0041    0.0020 N   0  0
    0.9810   -0.7550    0.5382 C   0  0
    1.9733   -0.3326    1.0965 O   0  0
    0.6453   -2.1803    0.3366 C   0  0
    1.2612   -3.3761    0.6694 C   0  0
    0.6653   -4.5772    0.3179 C   0  0
   -0.5382   -4.5898   -0.3619 C   0  0
   -1.1656   -3.4015   -0.7020 C   0  0
   -0.5819   -2.1932   -0.3565 C   0  0
   -0.9533   -0.7753   -0.5476 C   0  0
   -1.9539   -0.3737   -1.1067 O   0  0
   -1.1611   -5.8812   -0.7298 N   0  0
   -0.6131   -6.9279   -0.4335 O   0  0
   -2.2215   -5.8972   -1.3288 O   0  0
   -1.2955   14.0411    2.0393 Cl  0  0
   -2.7099    9.7471    0.2516 H   0  0
   -2.9764   12.1781    0.6762 H   0  0
    0.7713   12.2182    2.7875 H   0  0
    1.0264    9.7833    2.3787 H   0  0
   -1.1705    7.8800    0.1053 H   0  0
    0.3936    7.8954    0.9885 H   0  0
   -0.8213    7.6342    3.1453 H   0  0
   -2.3858    7.6174    2.2627 H   0  0
   -0.6831    5.5981    1.1115 H   0  0
   -1.8939    3.0425    3.3022 H   0  0
   -0.4863    3.9471    0.7937 H   0  0
    1.0144    1.8408    0.0014 H   0  0
   -0.5500    1.8247   -0.8811 H   0  0
    2.2190   -3.3722    1.2103 H   0  0
    1.1535   -5.5269    0.5818 H   0  0
   -2.1228   -3.4176   -1.2438 H   0  0
  1  6  2  0
  1  2  1  0
  2  3  2  0
  3  4  1  0
  3 31  1  0
  4  5  2  0
  5  6  1  0
  6  7  1  0
  7  8  1  0
  8  9  1  0
  9 10  1  0
 10 11  2  0
 10 12  1  0
 12 13  1  0
 13 14  1  0
 14 15  2  0
 14 16  1  0
 16 17  1  0
 17 26  1  0
 17 18  1  0
 18 19  2  0
 18 20  1  0
 20 25  2  0
 20 21  1  0
 21 22  2  0
 22 23  1  0
 23 24  2  0
 23 28  1  0
 24 25  1  0
 25 26  1  0
 26 27  2  0
 28 29  2  0
 28 30  2  0
  1 32  1  0
  2 33  1  0
  4 34  1  0
  5 35  1  0
  7 36  1  0
  7 37  1  0
  8 38  1  0
  8 39  1  0
  9 40  1  0
 12 41  1  0
 13 42  1  0
 16 43  1  0
 16 44  1  0
 21 45  1  0
 22 46  1  0
 24 47  1  0
M  END
> <Name>
ZINC27322143

> <reference>
BDB50146428

> <quality>
0.758

> <status>
decoy

$$$$
ZINC27093785
  SciTegic06061311253D

 57 59  0  0  1  0            999 V2000
    2.5311   -5.4901   -6.2628 C   0  0
    2.6381   -6.2687   -4.9500 C   0  0
    2.7503   -5.2866   -3.7822 C   0  0
    2.8771   -6.2097   -2.2259 S   0  0
    4.1143   -6.9063   -2.1694 O   0  0
    1.6546   -6.8812   -1.9541 O   0  0
    2.9918   -5.0487   -1.0506 N   0  0
    1.9203   -4.1832   -0.8167 C   0  0
    0.6252   -4.6838   -0.7449 C   0  0
   -0.4381   -3.8317   -0.5142 C   0  0
   -0.2217   -2.4780   -0.3534 C   0  0
    1.0747   -1.9653   -0.4236 C   0  0
    2.1477   -2.8244   -0.6618 C   0  0
    1.3092   -0.5158   -0.2523 C   0  0
    2.4390   -0.0714   -0.3139 O   0  0
    0.2704    0.3130   -0.0278 N   0  0
    0.4793    1.6943    0.0374 C   0  0
   -0.4864    2.5675   -0.4484 C   0  0
   -0.2805    3.9320   -0.3847 C   0  0
    0.8854    4.4330    0.1624 C   0  0
    1.8544    3.5654    0.6501 C   0  0
    1.6484    2.1944    0.5925 C   0  0
    3.0346    4.0737    1.2039 N   0  0
    3.0087    5.2235    1.9065 C   0  0
    1.9803    5.8613    1.9882 O   0  0
    4.2576    5.7168    2.5906 C   0  0  2  0  0  0
    4.7288    4.6737    3.6059 C   0  0
    3.9708    6.9763    3.2817 N   0  0
    3.4483    7.1015    4.5196 C   0  0
    3.3430    8.4230    4.7911 C   0  0
    3.8083    9.1296    3.6773 C   0  0
    4.1850    8.2634    2.7719 N   0  0
    3.4274   -4.8661   -6.3943 H   0  0
    1.6384   -4.8479   -6.2377 H   0  0
    2.4504   -6.1956   -7.1029 H   0  0
    1.7413   -6.8922   -4.8192 H   0  0
    3.5308   -6.9110   -4.9750 H   0  0
    1.8578   -4.6442   -3.7548 H   0  0
    3.6472   -4.6631   -3.9121 H   0  0
    3.8531   -4.9647   -0.4920 H   0  0
    0.4463   -5.7617   -0.8721 H   0  0
   -1.4605   -4.2337   -0.4585 H   0  0
   -1.0708   -1.8032   -0.1699 H   0  0
    3.1706   -2.4251   -0.7265 H   0  0
   -0.6774   -0.0709    0.0958 H   0  0
   -1.4157    2.1718   -0.8841 H   0  0
   -1.0462    4.6212   -0.7703 H   0  0
    1.0463    5.5200    0.2117 H   0  0
    2.4103    1.5055    0.9861 H   0  0
    3.9232    3.5691    1.0746 H   0  0
    5.0458    5.8811    1.8411 H   0  0
    4.9447    3.7276    3.0879 H   0  0
    3.9414    4.5089    4.3561 H   0  0
    5.6404    5.0331    4.1056 H   0  0
    3.1597    6.2770    5.1882 H   0  0
    2.9593    8.8637    5.7231 H   0  0
    3.8503   10.2244    3.5794 H   0  0
  1  2  1  0
  2  3  1  0
  3  4  1  0
  4  5  2  0
  4  6  2  0
  4  7  1  0
  7  8  1  0
  8 13  2  0
  8  9  1  0
  9 10  2  0
 10 11  1  0
 11 12  2  0
 12 13  1  0
 12 14  1  0
 14 15  2  0
 14 16  1  0
 16 17  1  0
 17 22  2  0
 17 18  1  0
 18 19  2  0
 19 20  1  0
 20 21  2  0
 21 22  1  0
 21 23  1  0
 23 24  1  0
 24 25  2  0
 24 26  1  0
 26 27  1  0
 26 28  1  0
 28 32  1  0
 28 29  1  0
 29 30  2  0
 30 31  1  0
 31 32  2  0
  1 33  1  0
  1 34  1  0
  1 35  1  0
  2 36  1  0
  2 37  1  0
  3 38  1  0
  3 39  1  0
  7 40  1  0
  9 41  1  0
 10 42  1  0
 11 43  1  0
 13 44  1  0
 16 45  1  0
 18 46  1  0
 19 47  1  0
 20 48  1  0
 22 49  1  0
 23 50  1  0
 26 51  1  0
 27 52  1  0
 27 53  1  0
 27 54  1  0
 29 55  1  0
 30 56  1  0
 31 57  1  0
M  END
> <Name>
ZINC27093785

> <reference>
BDB50146428

> <quality>
0.754

> <status>
decoy

$$$$
ZINC26369922
  SciTegic06061311253D

 50 52  0  0  0  0            999 V2000
    3.4651    3.1573   -1.0579 C   0  0
    3.5209    1.7969   -0.4120 C   0  0
    4.7235    1.1235   -0.3209 C   0  0
    4.7754   -0.1248    0.2711 C   0  0
    3.6242   -0.7035    0.7738 C   0  0
    2.4197   -0.0332    0.6905 C   0  0
    2.3633    1.2187    0.0917 C   0  0
    1.1435    1.8984    0.0013 N   0  0
   -0.0145    1.2089    0.0119 C   0  0
    0.0016   -0.0038   -0.0014 O   0  0
   -1.3294    1.9448    0.0340 C   0  0
   -2.4789    0.9351    0.0354 C   0  0
   -4.0582    1.8190    0.0620 S   0  0
   -5.1727    0.4543    0.0591 C   0  0
   -4.8491   -0.8178    0.0361 N   0  0
   -5.9128   -1.5392    0.0442 N   0  0
   -6.9697   -0.7774    0.0642 C   0  0
   -6.5365    0.5197    0.0745 N   0  0
   -7.3079    1.6468    0.0957 N   0  0
   -8.4039   -1.2400    0.0743 C   0  0
   -8.8717   -1.3708   -1.2696 O   0  0
  -10.1560   -1.7824   -1.4387 C   0  0
  -10.9474   -2.0602   -0.3338 C   0  0
  -12.2540   -2.4738   -0.5076 C   0  0
  -12.7701   -2.6212   -1.7829 C   0  0
  -11.9806   -2.3497   -2.8863 C   0  0
  -10.6752   -1.9308   -2.7165 C   0  0
  -14.4104   -3.1470   -1.9989 Cl  0  0
    3.6842   -2.0401    1.4067 N   0  0
    4.7471   -2.6298    1.4847 O   0  0
    2.6708   -2.5503    1.8496 O   0  0
    3.0286    3.8180   -0.2943 H   0  0
    2.7240    3.0598   -1.8649 H   0  0
    4.4385    3.5186   -1.4211 H   0  0
    5.6409    1.5809   -0.7198 H   0  0
    5.7344   -0.6589    0.3425 H   0  0
    1.5059   -0.4903    1.0980 H   0  0
    1.1306    2.9256   -0.0733 H   0  0
   -1.3868    2.5662    0.9399 H   0  0
   -1.4069    2.5862   -0.8562 H   0  0
   -2.4224    0.3137   -0.8705 H   0  0
   -2.4038    0.2934    0.9257 H   0  0
   -6.7822    2.5325    0.1002 H   0  0
   -8.3378    1.6331    0.1066 H   0  0
   -8.4717   -2.2135    0.5820 H   0  0
   -9.0239   -0.5043    0.6076 H   0  0
  -10.5349   -1.9512    0.6801 H   0  0
  -12.8845   -2.6861    0.3684 H   0  0
  -12.3927   -2.4675   -3.8994 H   0  0
  -10.0479   -1.7151   -3.5939 H   0  0
  1  2  1  0
  2  7  2  0
  2  3  1  0
  3  4  2  0
  4  5  1  0
  5  6  2  0
  5 29  1  0
  6  7  1  0
  7  8  1  0
  8  9  1  0
  9 10  2  0
  9 11  1  0
 11 12  1  0
 12 13  1  0
 13 14  1  0
 14 18  1  0
 14 15  2  0
 15 16  1  0
 16 17  2  0
 17 18  1  0
 17 20  1  0
 18 19  1  0
 20 21  1  0
 21 22  1  0
 22 27  2  0
 22 23  1  0
 23 24  2  0
 24 25  1  0
 25 26  2  0
 25 28  1  0
 26 27  1  0
 29 30  2  0
 29 31  2  0
  1 32  1  0
  1 33  1  0
  1 34  1  0
  3 35  1  0
  4 36  1  0
  6 37  1  0
  8 38  1  0
 11 39  1  0
 11 40  1  0
 12 41  1  0
 12 42  1  0
 19 43  1  0
 19 44  1  0
 20 45  1  0
 20 46  1  0
 23 47  1  0
 24 48  1  0
 26 49  1  0
 27 50  1  0
M  END
> <Name>
ZINC26369922

> <reference>
BDB50146428

> <quality>
0.748

> <status>
decoy

$$$$
ZINC21274798
  SciTegic06061311253D

 59 62  0  0  1  0            999 V2000
  -14.3450   -3.4625    3.6633 C   0  0
  -13.0514   -3.3418    2.8999 C   0  0
  -12.0414   -2.5274    3.3809 C   0  0
  -10.8547   -2.4120    2.6873 C   0  0
  -10.6739   -3.1198    1.4967 C   0  0
  -11.6998   -3.9359    1.0144 C   0  0
  -12.8794   -4.0455    1.7209 C   0  0
   -9.4080   -3.0012    0.7492 C   0  0
   -8.4011   -2.2799    1.1025 N   0  0
   -7.3234   -2.3360    0.2211 N   0  0
   -7.6620   -3.2426   -0.8874 C   0  0  2  0  0  0
   -9.0901   -3.7125   -0.5466 C   0  0
   -6.7132   -4.4129   -0.9240 C   0  0
   -6.2157   -4.9878   -2.0337 C   0  0
   -5.3749   -6.0414   -1.6074 C   0  0
   -5.4088   -6.0473   -0.2627 C   0  0
   -6.2165   -5.0551    0.1458 O   0  0
   -6.1588   -1.6727    0.3636 C   0  0
   -5.2827   -1.8002   -0.4657 O   0  0
   -5.9450   -0.7726    1.5533 C   0  0
   -4.6107   -0.1723    1.4779 N   0  0
   -4.1811    0.7071    2.4792 C   0  0
   -5.0170    1.0115    3.5428 C   0  0
   -4.5908    1.8804    4.5303 C   0  0
   -3.3319    2.4477    4.4613 C   0  0
   -2.4898    2.1457    3.4070 C   0  0
   -2.9112    1.2797    2.4094 C   0  0
   -2.0622    0.9766    1.3380 N   0  0
   -0.7288    1.5792    1.2668 C   0  0
   -0.0127    1.0858    0.0080 C   0  0
   -0.7038    1.5592   -1.1497 O   0  0
   -5.4848    2.2039    5.6646 N   0  0
   -6.5940    1.7048    5.7273 O   0  0
   -5.1111    2.9691    6.5354 O   0  0
  -14.4633   -4.5384    3.8592 H   0  0
  -15.1287   -3.1736    2.9475 H   0  0
  -14.3748   -2.8618    4.5843 H   0  0
  -12.1852   -1.9707    4.3187 H   0  0
  -10.0527   -1.7642    3.0708 H   0  0
  -11.5673   -4.4899    0.0734 H   0  0
  -13.6852   -4.6938    1.3462 H   0  0
   -7.5928   -2.7598   -1.8733 H   0  0
   -9.7896   -3.3980   -1.3351 H   0  0
   -9.1036   -4.8019   -0.3950 H   0  0
   -6.4232   -4.6944   -3.0733 H   0  0
   -4.8028   -6.7251   -2.2517 H   0  0
   -4.8669   -6.7462    0.3914 H   0  0
   -6.7049    0.0227    1.5528 H   0  0
   -6.0300   -1.3604    2.4792 H   0  0
   -3.9887   -0.3972    0.6883 H   0  0
   -6.0192    0.5617    3.6010 H   0  0
   -2.9992    3.1414    5.2475 H   0  0
   -1.4857    2.5924    3.3597 H   0  0
   -2.3752    0.3299    0.5999 H   0  0
   -0.1473    1.2915    2.1551 H   0  0
   -0.8228    2.6745    1.2290 H   0  0
    1.0191    1.4669   -0.0002 H   0  0
    0.0026   -0.0141    0.0008 H   0  0
   -0.7175    2.5491   -1.1452 H   0  0
  1  2  1  0
  2  7  2  0
  2  3  1  0
  3  4  2  0
  4  5  1  0
  5  6  2  0
  5  8  1  0
  6  7  1  0
  8 12  1  0
  8  9  2  0
  9 10  1  0
 10 11  1  0
 10 18  1  0
 11 12  1  0
 11 13  1  0
 13 17  1  0
 13 14  2  0
 14 15  1  0
 15 16  2  0
 16 17  1  0
 18 19  2  0
 18 20  1  0
 20 21  1  0
 21 22  1  0
 22 27  2  0
 22 23  1  0
 23 24  2  0
 24 25  1  0
 24 32  1  0
 25 26  2  0
 26 27  1  0
 27 28  1  0
 28 29  1  0
 29 30  1  0
 30 31  1  0
 32 33  2  0
 32 34  2  0
  1 35  1  0
  1 36  1  0
  1 37  1  0
  3 38  1  0
  4 39  1  0
  6 40  1  0
  7 41  1  0
 11 42  1  0
 12 43  1  0
 12 44  1  0
 14 45  1  0
 15 46  1  0
 16 47  1  0
 20 48  1  0
 20 49  1  0
 21 50  1  0
 23 51  1  0
 25 52  1  0
 26 53  1  0
 28 54  1  0
 29 55  1  0
 29 56  1  0
 30 57  1  0
 30 58  1  0
 31 59  1  0
M  END
> <Name>
ZINC21274798

> <reference>
BDB50146428

> <quality>
0.747

> <status>
decoy

$$$$
ZINC29282489
  SciTegic06061311253D

 60 62  0  0  0  0            999 V2000
    3.2488   -6.5744    2.6336 C   0  0
    1.7787   -6.1865    2.4630 C   0  0
    1.6453   -4.6628    2.5033 C   0  0
    0.1752   -4.2749    2.3327 C   0  0
    0.0475   -2.8160    2.3713 N   0  0
    0.0377   -2.0766    1.1697 C   0  0
   -1.0058   -2.2040    0.2758 C   0  0
   -0.9872   -1.4696   -0.8872 N   0  0
    0.0387   -0.6406   -1.1524 C   0  0
    0.0389   -0.0038   -2.1884 O   0  0
    1.0615   -0.4998   -0.2908 N   0  0
    1.0919   -1.1961    0.8623 C   0  0
    2.0263   -1.0641    1.6347 O   0  0
   -2.0883   -1.5953   -1.8454 C   0  0
   -3.1727   -0.5682   -1.5138 C   0  0
   -4.3226   -0.6995   -2.5145 C   0  0
   -2.0515   -3.0543    0.5444 N   0  0
   -0.0608   -2.1793    3.5561 C   0  0
   -0.0746   -0.9667    3.5941 O   0  0
   -0.1645   -2.9744    4.8321 C   0  0
   -0.2964   -1.8432    6.2389 S   0  0
   -0.4007   -3.0065    7.5582 C   0  0
   -0.5196   -2.5503    8.8837 C   0  0
   -0.5988   -3.4010    9.8776 N   0  0
   -0.5662   -4.7176    9.6330 C   0  0
   -0.6501   -5.6497   10.6809 C   0  0
   -0.6149   -6.9822   10.4041 C   0  0
   -0.4966   -7.4387    9.0931 C   0  0
   -0.4126   -6.5647    8.0528 C   0  0
   -0.4461   -5.1818    8.3000 C   0  0
   -0.3721   -4.3000    7.2952 N   0  0
   -0.5566   -1.0699    9.1633 C   0  0
    3.6181   -6.2002    3.5998 H   0  0
    3.8423   -6.1334    1.8192 H   0  0
    3.3454   -7.6698    2.6047 H   0  0
    1.4103   -6.5608    1.4965 H   0  0
    1.1851   -6.6274    3.2774 H   0  0
    2.0131   -4.2878    3.4698 H   0  0
    2.2374   -4.2201    1.6888 H   0  0
   -0.4184   -4.7159    3.1471 H   0  0
   -0.1931   -4.6492    1.3662 H   0  0
    1.8305    0.1478   -0.5149 H   0  0
   -1.7116   -1.4144   -2.8629 H   0  0
   -2.5134   -2.6081   -1.7864 H   0  0
   -3.5502   -0.7488   -0.4965 H   0  0
   -2.7497    0.4455   -1.5734 H   0  0
   -4.7476   -1.7124   -2.4554 H   0  0
   -3.9467   -0.5190   -3.5324 H   0  0
   -5.1027    0.0387   -2.2767 H   0  0
   -2.0550   -3.5991    1.4185 H   0  0
   -2.8288   -3.1471   -0.1249 H   0  0
   -1.0573   -3.6158    4.7932 H   0  0
    0.7322   -3.6007    4.9491 H   0  0
   -0.7439   -5.3042   11.7210 H   0  0
   -0.6808   -7.7088   11.2273 H   0  0
   -0.4707   -8.5206    8.8959 H   0  0
   -0.3189   -6.9395    7.0229 H   0  0
   -1.3968   -0.6858    8.5663 H   0  0
    0.3672   -0.6706    8.7193 H   0  0
   -0.6513   -0.8215   10.2307 H   0  0
  1  2  1  0
  2  3  1  0
  3  4  1  0
  4  5  1  0
  5  6  1  0
  5 18  1  0
  6 12  1  0
  6  7  2  0
  7  8  1  0
  7 17  1  0
  8  9  1  0
  8 14  1  0
  9 10  2  0
  9 11  1  0
 11 12  1  0
 12 13  2  0
 14 15  1  0
 15 16  1  0
 18 19  2  0
 18 20  1  0
 20 21  1  0
 21 22  1  0
 22 31  1  0
 22 23  2  0
 23 24  1  0
 23 32  1  0
 24 25  2  0
 25 30  1  0
 25 26  1  0
 26 27  2  0
 27 28  1  0
 28 29  2  0
 29 30  1  0
 30 31  2  0
  1 33  1  0
  1 34  1  0
  1 35  1  0
  2 36  1  0
  2 37  1  0
  3 38  1  0
  3 39  1  0
  4 40  1  0
  4 41  1  0
 11 42  1  0
 14 43  1  0
 14 44  1  0
 15 45  1  0
 15 46  1  0
 16 47  1  0
 16 48  1  0
 16 49  1  0
 17 50  1  0
 17 51  1  0
 20 52  1  0
 20 53  1  0
 26 54  1  0
 27 55  1  0
 28 56  1  0
 29 57  1  0
 32 58  1  0
 32 59  1  0
 32 60  1  0
M  END
> <Name>
ZINC29282489

> <reference>
BDB50146428

> <quality>
0.746

> <status>
decoy

$$$$
ZINC31350972
  SciTegic06061311253D

 54 55  0  0  1  0            999 V2000
   -1.7704    2.1610    1.5488 C   0  0
   -1.3182    1.8836    0.1137 C   0  0
   -0.0164    1.2119    0.1330 N   0  0
    0.0525   -0.2508    0.1772 C   0  0
    0.0844   -0.7161    1.6344 C   0  0  1  0  0  0
    0.1564   -2.2437    1.6805 C   0  0
    0.0690   -2.6839    3.0372 O   0  0
    1.2312   -0.1653    2.2852 O   0  0
    1.1544    1.9630    0.1037 C   0  0
    2.3917    1.3205    0.1223 C   0  0
    3.5471    2.0459    0.0889 C   0  0
    3.4969    3.4454    0.0466 C   0  0
    2.2499    4.0986    0.0331 C   0  0
    1.0854    3.3502    0.0619 C   0  0
    2.1879    5.4904   -0.0084 N   0  0
    1.2001    6.1008   -0.6926 C   0  0
    0.3194    5.4419   -1.2035 O   0  0
    1.1900    7.6021   -0.8228 C   0  0
    4.6466    4.1689    0.0183 N   0  0
    5.7850    3.5680   -0.0649 N   0  0
    6.9291    4.2930   -0.1995 C   0  0
    6.8900    5.7007   -0.1439 C   0  0
    8.0715    6.4299   -0.2781 C   0  0
    9.2742    5.7792   -0.4757 C   0  0
    9.3273    4.4000   -0.5382 C   0  0
    8.1634    3.6435   -0.4016 C   0  0
    8.2223    2.2142   -0.4668 C   0  0
    8.2690    1.0803   -0.5186 N   0  0
   10.5185    6.5676   -0.6216 N   0  0
   11.5821    6.0003   -0.7956 O   0  0
   10.4787    7.7838   -0.5675 O   0  0
    5.6445    6.3788    0.0549 C   0  0
    4.6564    6.9167    0.2125 N   0  0
   -1.0329    2.8064    2.0484 H   0  0
   -1.8567    1.2113    2.0972 H   0  0
   -2.7479    2.6654    1.5350 H   0  0
   -1.2319    2.8332   -0.4347 H   0  0
   -2.0560    1.2379   -0.3850 H   0  0
   -0.8305   -0.6749   -0.3233 H   0  0
    0.9639   -0.5917   -0.3358 H   0  0
   -0.8271   -0.3764    2.1479 H   0  0
    1.1099   -2.5802    1.2473 H   0  0
   -0.6785   -2.6678    1.1034 H   0  0
   -0.7892   -2.3827    3.4282 H   0  0
    1.1854    0.8232    2.2561 H   0  0
    2.4368    0.2222    0.1642 H   0  0
    4.5192    1.5311    0.0952 H   0  0
    0.1071    3.8530    0.0517 H   0  0
    2.8970    6.0524    0.4838 H   0  0
    2.1585    7.8576   -1.2774 H   0  0
    1.2039    7.9802    0.2101 H   0  0
    0.3388    7.9907   -1.4011 H   0  0
    8.0456    7.5284   -0.2264 H   0  0
   10.2922    3.8961   -0.6965 H   0  0
  1  2  1  0
  2  3  1  0
  3  4  1  0
  3  9  1  0
  4  5  1  0
  5  6  1  0
  5  8  1  0
  6  7  1  0
  9 14  2  0
  9 10  1  0
 10 11  2  0
 11 12  1  0
 12 13  2  0
 12 19  1  0
 13 14  1  0
 13 15  1  0
 15 16  1  0
 16 17  2  0
 16 18  1  0
 19 20  2  0
 20 21  1  0
 21 26  2  0
 21 22  1  0
 22 23  2  0
 22 32  1  0
 23 24  1  0
 24 25  2  0
 24 29  1  0
 25 26  1  0
 26 27  1  0
 27 28  3  0
 29 30  2  0
 29 31  2  0
 32 33  3  0
  1 34  1  0
  1 35  1  0
  1 36  1  0
  2 37  1  0
  2 38  1  0
  4 39  1  0
  4 40  1  0
  5 41  1  0
  6 42  1  0
  6 43  1  0
  7 44  1  0
  8 45  1  0
 10 46  1  0
 11 47  1  0
 14 48  1  0
 15 49  1  0
 18 50  1  0
 18 51  1  0
 18 52  1  0
 23 53  1  0
 25 54  1  0
M  END
> <Name>
ZINC31350972

> <reference>
BDB50146428

> <quality>
0.744

> <status>
decoy

$$$$
ZINC30999315
  SciTegic06061311253D

 60 62  0  0  0  0            999 V2000
   -0.0366    1.0992   -2.4903 C   0  0
   -0.7527    1.5927   -1.2315 C   0  0
   -0.0127    1.0858    0.0080 C   0  0
   -0.7288    1.5792    1.2668 C   0  0
   -0.0203    1.0939    2.4537 N   0  0
    0.9650    1.8594    2.9664 C   0  0
    1.2560    2.9251    2.4548 O   0  0
    1.6756    1.3791    4.1596 C   0  0
    2.7026    2.0948    4.7668 C   0  0
    3.3232    1.5720    5.8814 C   0  0
    2.9336    0.3441    6.4003 C   0  0
    1.9184   -0.3806    5.8127 C   0  0
    1.2791    0.1286    4.6876 C   0  0
    0.1874   -0.5809    4.0013 C   0  0
   -0.3656   -0.0356    2.9452 N   0  0
   -0.2789   -1.8914    4.4960 C   0  0
    0.2391   -2.3906    5.4762 O   0  0
   -1.2789   -2.5344    3.8612 N   0  0
   -1.7215   -3.7780    4.3307 N   0  0
   -2.7215   -4.4210    3.6958 C   0  0
   -3.1056   -5.5002    4.1033 O   0  0
   -3.2957   -3.8676    2.6093 N   0  0
   -4.3827   -4.5665    1.9192 C   0  0
   -4.8458   -3.7412    0.7464 C   0  0
   -5.8613   -2.8176    0.9111 C   0  0
   -6.2858   -2.0541   -0.1604 C   0  0
   -5.7010   -2.2217   -1.4054 C   0  0
   -4.6828   -3.1553   -1.5724 C   0  0
   -4.2581   -3.9134   -0.4930 C   0  0
   -4.1054   -3.3231   -2.7922 O   0  0
   -3.0661   -4.2990   -2.8893 C   0  0
   -6.1210   -1.4750   -2.4616 O   0  0
   -7.1702   -0.5365   -2.2162 C   0  0
   -0.0215   -0.0007   -2.4975 H   0  0
    0.9955    1.4796   -2.4992 H   0  0
   -0.5681    1.4633   -3.3819 H   0  0
   -0.7671    2.6926   -1.2250 H   0  0
   -1.7848    1.2124   -1.2225 H   0  0
    0.0018   -0.0141    0.0023 H   0  0
    1.0194    1.4662    0.0013 H   0  0
   -0.7433    2.6791    1.2733 H   0  0
   -1.7609    1.1988    1.2757 H   0  0
    3.0163    3.0681    4.3616 H   0  0
    4.1360    2.1337    6.3651 H   0  0
    3.4411   -0.0551    7.2909 H   0  0
    1.6169   -1.3527    6.2301 H   0  0
   -1.7178   -2.1115    3.0309 H   0  0
   -1.2827   -4.2009    5.1611 H   0  0
   -2.9703   -2.9533    2.2642 H   0  0
   -5.2219   -4.7182    2.6140 H   0  0
   -4.0223   -5.5421    1.5608 H   0  0
   -6.3325   -2.6900    1.8968 H   0  0
   -7.0878   -1.3136   -0.0246 H   0  0
   -3.4534   -4.6521   -0.6223 H   0  0
   -3.5044   -5.2516   -2.5570 H   0  0
   -2.2986   -4.0072   -2.1574 H   0  0
   -2.6492   -4.3771   -3.9042 H   0  0
   -6.8098    0.1284   -1.4174 H   0  0
   -8.0160   -1.1156   -1.8172 H   0  0
   -7.4547    0.0286   -3.1161 H   0  0
  1  2  1  0
  2  3  1  0
  3  4  1  0
  4  5  1  0
  5 15  1  0
  5  6  1  0
  6  7  2  0
  6  8  1  0
  8 13  2  0
  8  9  1  0
  9 10  2  0
 10 11  1  0
 11 12  2  0
 12 13  1  0
 13 14  1  0
 14 15  2  0
 14 16  1  0
 16 17  2  0
 16 18  1  0
 18 19  1  0
 19 20  1  0
 20 21  2  0
 20 22  1  0
 22 23  1  0
 23 24  1  0
 24 29  2  0
 24 25  1  0
 25 26  2  0
 26 27  1  0
 27 28  2  0
 27 32  1  0
 28 29  1  0
 28 30  1  0
 30 31  1  0
 32 33  1  0
  1 34  1  0
  1 35  1  0
  1 36  1  0
  2 37  1  0
  2 38  1  0
  3 39  1  0
  3 40  1  0
  4 41  1  0
  4 42  1  0
  9 43  1  0
 10 44  1  0
 11 45  1  0
 12 46  1  0
 18 47  1  0
 19 48  1  0
 22 49  1  0
 23 50  1  0
 23 51  1  0
 25 52  1  0
 26 53  1  0
 29 54  1  0
 31 55  1  0
 31 56  1  0
 31 57  1  0
 33 58  1  0
 33 59  1  0
 33 60  1  0
M  END
> <Name>
ZINC30999315

> <reference>
BDB50146428

> <quality>
0.742

> <status>
decoy

$$$$
ZINC31520947
  SciTegic06061311253D

 51 53  0  0  0  0            999 V2000
  -15.9338   -5.0042    3.5913 C   0  0
  -14.7200   -5.4623    4.1902 O   0  0
  -13.5852   -4.7799    3.8844 C   0  0
  -12.3741   -5.1714    4.4309 C   0  0
  -11.2098   -4.4704    4.1159 C   0  0
  -11.2716   -3.3738    3.2557 C   0  0
  -12.4858   -2.9924    2.7091 C   0  0
  -13.6413   -3.6923    3.0249 C   0  0
  -12.5463   -1.9277    1.8666 O   0  0
  -13.8317   -1.5860    1.3441 C   0  0
   -9.9147   -4.8849    4.6970 C   0  0
   -9.8636   -5.8375    5.4502 O   0  0
   -8.7910   -4.2063    4.3914 N   0  0
   -7.5640   -4.5990    4.9419 N   0  0
   -6.4403   -3.9204    4.6364 C   0  0
   -6.4913   -2.9699    3.8849 O   0  0
   -5.1205   -4.3428    5.2286 C   0  0
   -4.0311   -3.4277    4.7317 C   0  0
   -3.2280   -2.7690    5.6025 C   0  0
   -2.1736   -1.8749    4.4704 S   0  0
   -2.8865   -2.4506    2.9953 C   0  0
   -3.8409   -3.2448    3.4397 N   0  0
   -2.5432   -2.1473    1.6829 N   0  0
   -1.5277   -1.2977    1.4311 C   0  0
   -0.9134   -0.7977    2.3496 O   0  0
   -1.1555   -0.9689    0.0083 C   0  0
    0.0021   -0.0041    0.0020 C   0  0
    1.3319   -0.2664   -0.0121 C   0  0
    2.2234    0.7899   -0.0149 C   0  0
    1.7416    2.0568   -0.0035 C   0  0
   -0.0221    1.7810    0.0118 S   0  0
  -15.7715   -5.0314    2.5037 H   0  0
  -16.0475   -3.9514    3.8892 H   0  0
  -16.8068   -5.6052    3.8858 H   0  0
  -12.3304   -6.0338    5.1123 H   0  0
  -10.3573   -2.8128    3.0119 H   0  0
  -14.6047   -3.3840    2.5926 H   0  0
  -14.4802   -1.4028    2.2135 H   0  0
  -14.2044   -2.4833    0.8283 H   0  0
  -13.8001   -0.7160    0.6718 H   0  0
   -8.8343   -3.3990    3.7532 H   0  0
   -7.5207   -5.4063    5.5801 H   0  0
   -5.1754   -4.2847    6.3257 H   0  0
   -4.8960   -5.3765    4.9269 H   0  0
   -3.2259   -2.7814    6.7024 H   0  0
   -3.0649   -2.5719    0.9029 H   0  0
   -0.8666   -1.8908   -0.5177 H   0  0
   -2.0164   -0.5108   -0.5006 H   0  0
    1.6961   -1.3043   -0.0212 H   0  0
    3.3077    0.6052   -0.0262 H   0  0
    2.2940    3.0080   -0.0036 H   0  0
  1  2  1  0
  2  3  1  0
  3  8  2  0
  3  4  1  0
  4  5  2  0
  5  6  1  0
  5 11  1  0
  6  7  2  0
  7  8  1  0
  7  9  1  0
  9 10  1  0
 11 12  2  0
 11 13  1  0
 13 14  1  0
 14 15  1  0
 15 16  2  0
 15 17  1  0
 17 18  1  0
 18 22  1  0
 18 19  2  0
 19 20  1  0
 20 21  1  0
 21 22  2  0
 21 23  1  0
 23 24  1  0
 24 25  2  0
 24 26  1  0
 26 27  1  0
 27 31  1  0
 27 28  2  0
 28 29  1  0
 29 30  2  0
 30 31  1  0
  1 32  1  0
  1 33  1  0
  1 34  1  0
  4 35  1  0
  6 36  1  0
  8 37  1  0
 10 38  1  0
 10 39  1  0
 10 40  1  0
 13 41  1  0
 14 42  1  0
 17 43  1  0
 17 44  1  0
 19 45  1  0
 23 46  1  0
 26 47  1  0
 26 48  1  0
 28 49  1  0
 29 50  1  0
 30 51  1  0
M  END
> <Name>
ZINC31520947

> <reference>
BDB50146428

> <quality>
0.742

> <status>
decoy

$$$$
ZINC16939336
  SciTegic06061311253D

 59 60  0  0  1  0            999 V2000
   -1.5235    1.4050    1.2138 C   0  0
   -1.2703   -0.0036    0.7416 C   0  0
   -0.4174   -0.8267    1.4477 C   0  0
   -0.1842   -2.1202    1.0158 C   0  0
   -0.8033   -2.5974   -0.1261 C   0  0
   -1.6580   -1.7851   -0.8417 C   0  0
   -1.9027   -0.4804   -0.4080 C   0  0
   -2.8223    0.3931   -1.1655 C   0  0
   -2.9347    1.5641   -0.8631 O   0  0
   -3.5363   -0.1092   -2.1915 O   0  0
   -4.4197    0.8069   -2.8906 C   0  0  2  0  0  0
   -5.7985    0.7915   -2.2276 C   0  0
   -4.5495    0.3794   -4.3299 C   0  0
   -4.0304   -0.6496   -4.7058 O   0  0
   -5.2428    1.1412   -5.1991 N   0  0
   -5.3589    0.7589   -6.4863 C   0  0
   -4.8385   -0.2728   -6.8632 O   0  0
   -6.0522    1.5206   -7.3556 N   0  0
   -6.1784    1.1051   -8.7547 C   0  0
   -6.9949    2.1225   -9.5092 C   0  0
   -6.5106    3.2025  -10.1482 C   0  0
   -7.6182    3.8744  -10.7145 C   0  0
   -8.7132    3.1647  -10.3877 C   0  0
   -8.3290    2.1016   -9.6625 O   0  0
   -0.4987   -4.2463   -0.6675 S   0  0
   -0.4696   -4.2086   -2.0877 O   0  0
    0.5910   -4.7323    0.1042 O   0  0
   -1.8191   -5.1521   -0.2450 N   0  0
   -2.1289   -5.3804    1.1685 C   0  0  1  0  0  0
   -2.1526   -4.0412    1.9081 C   0  0
   -3.4977   -6.0535    1.2884 C   0  0
   -1.0600   -6.2848    1.7853 C   0  0
   -2.6140    1.4706    1.3419 H   0  0
   -1.2586    2.0439    0.3584 H   0  0
   -0.9745    1.6750    2.1279 H   0  0
    0.0783   -0.4537    2.3561 H   0  0
    0.4965   -2.7723    1.5827 H   0  0
   -2.1458   -2.1641   -1.7519 H   0  0
   -4.0029    1.8239   -2.8463 H   0  0
   -5.7048    1.1036   -1.1770 H   0  0
   -6.2164   -0.2251   -2.2716 H   0  0
   -6.4683    1.4853   -2.7567 H   0  0
   -5.6839    2.0155   -4.8797 H   0  0
   -6.4933    2.3949   -7.0362 H   0  0
   -5.1784    1.0301   -9.2067 H   0  0
   -6.6774    0.1260   -8.8040 H   0  0
   -5.4552    3.5049  -10.2170 H   0  0
   -7.5899    4.7999  -11.3084 H   0  0
   -9.7478    3.4130  -10.6670 H   0  0
   -2.4225   -5.5550   -0.9761 H   0  0
   -2.9210   -3.3903    1.4656 H   0  0
   -1.1688   -3.5565    1.8227 H   0  0
   -2.3852   -4.2119    2.9696 H   0  0
   -3.4817   -7.0165    0.7571 H   0  0
   -4.2670   -5.4039    0.8455 H   0  0
   -3.7309   -6.2252    2.3496 H   0  0
   -0.0755   -5.8016    1.6998 H   0  0
   -1.0423   -7.2480    1.2543 H   0  0
   -1.2920   -6.4566    2.8467 H   0  0
  1  2  1  0
  2  7  2  0
  2  3  1  0
  3  4  2  0
  4  5  1  0
  5  6  2  0
  5 25  1  0
  6  7  1  0
  7  8  1  0
  8  9  2  0
  8 10  1  0
 10 11  1  0
 11 12  1  0
 11 13  1  0
 13 14  2  0
 13 15  1  0
 15 16  1  0
 16 17  2  0
 16 18  1  0
 18 19  1  0
 19 20  1  0
 20 24  1  0
 20 21  2  0
 21 22  1  0
 22 23  2  0
 23 24  1  0
 25 26  2  0
 25 27  2  0
 25 28  1  0
 28 29  1  0
 29 30  1  0
 29 31  1  0
 29 32  1  0
  1 33  1  0
  1 34  1  0
  1 35  1  0
  3 36  1  0
  4 37  1  0
  6 38  1  0
 11 39  1  0
 12 40  1  0
 12 41  1  0
 12 42  1  0
 15 43  1  0
 18 44  1  0
 19 45  1  0
 19 46  1  0
 21 47  1  0
 22 48  1  0
 23 49  1  0
 28 50  1  0
 30 51  1  0
 30 52  1  0
 30 53  1  0
 31 54  1  0
 31 55  1  0
 31 56  1  0
 32 57  1  0
 32 58  1  0
 32 59  1  0
M  END
> <Name>
ZINC16939336

> <reference>
BDB50146428

> <quality>
0.740

> <status>
decoy

$$$$
ZINC28717242
  SciTegic06061311253D

 48 50  0  0  0  0            999 V2000
   -1.6843    5.4158   -4.6182 C   0  0
   -1.2993    5.1632   -3.2411 O   0  0
   -1.1918    3.8794   -2.8641 C   0  0
   -1.4121    2.9960   -3.6585 O   0  0
   -0.7964    3.5399   -1.4501 C   0  0
   -0.7498    2.0842   -1.2922 N   0  0
    0.0040    1.4177    0.0231 S   0  0
   -0.1423    0.0092   -0.0955 O   0  0
    1.2746    2.0458    0.1245 O   0  0
   -0.9119    1.9009    1.4487 C   0  0
   -0.5850    3.0671    2.1161 C   0  0
   -1.3039    3.4511    3.2310 C   0  0
   -2.3497    2.6594    3.6877 C   0  0
   -2.6721    1.4859    3.0181 C   0  0
   -1.9522    1.1101    1.9010 C   0  0
   -3.0768    3.0430    4.8188 N   0  0
   -3.2807    4.3499    5.0775 C   0  0
   -2.9161    5.1924    4.2787 O   0  0
   -3.9428    4.7573    6.3237 C   0  0
   -4.2035    6.0387    6.6959 C   0  0
   -4.8476    5.9996    7.9542 C   0  0
   -4.9608    4.6438    8.3180 C   0  0
   -4.4062    3.8986    7.3037 N   0  0
   -5.5628    4.3049    9.5261 C   0  0
   -6.0439    5.2917   10.3585 C   0  0
   -5.9360    6.6297   10.0079 C   0  0
   -5.3437    6.9940    8.8150 C   0  0
   -5.2410    8.3046    8.4756 O   0  0
   -5.7679    9.2576    9.4009 C   0  0  1  0  0  0
   -7.1348    9.0228    9.5845 F   0  0
   -5.1047    9.1336   10.6264 F   0  0
   -2.6488    4.9087   -4.7685 H   0  0
   -0.9356    4.9117   -5.2469 H   0  0
   -1.7507    6.4892   -4.8493 H   0  0
   -1.5342    3.9604   -0.7509 H   0  0
    0.1957    3.9635   -1.2349 H   0  0
   -1.1859    1.4753   -1.9993 H   0  0
    0.2485    3.6896    1.7586 H   0  0
   -1.0485    4.3830    3.7567 H   0  0
   -3.4998    0.8566    3.3771 H   0  0
   -2.2066    0.1807    1.3705 H   0  0
   -3.4565    2.3268    5.4543 H   0  0
   -3.9575    6.9438    6.1212 H   0  0
   -4.3460    2.8707    7.2782 H   0  0
   -5.6546    3.2480    9.8167 H   0  0
   -6.5188    5.0157   11.3116 H   0  0
   -6.3247    7.4051   10.6844 H   0  0
   -5.6202   10.2733    9.0052 H   0  0
  1  2  1  0
  2  3  1  0
  3  4  2  0
  3  5  1  0
  5  6  1  0
  6  7  1  0
  7  8  2  0
  7  9  2  0
  7 10  1  0
 10 15  2  0
 10 11  1  0
 11 12  2  0
 12 13  1  0
 13 14  2  0
 13 16  1  0
 14 15  1  0
 16 17  1  0
 17 18  2  0
 17 19  1  0
 19 23  1  0
 19 20  2  0
 20 21  1  0
 21 27  2  0
 21 22  1  0
 22 23  1  0
 22 24  2  0
 24 25  1  0
 25 26  2  0
 26 27  1  0
 27 28  1  0
 28 29  1  0
 29 30  1  0
 29 31  1  0
  1 32  1  0
  1 33  1  0
  1 34  1  0
  5 35  1  0
  5 36  1  0
  6 37  1  0
 11 38  1  0
 12 39  1  0
 14 40  1  0
 15 41  1  0
 16 42  1  0
 20 43  1  0
 23 44  1  0
 24 45  1  0
 25 46  1  0
 26 47  1  0
 29 48  1  0
M  END
> <Name>
ZINC28717242

> <reference>
BDB50146428

> <quality>
0.739

> <status>
decoy

$$$$
ZINC04115225
  SciTegic06061311253D

 35 36  0  0  0  0            999 V2000
   -2.3914    1.2506    0.0202 C   0  0
   -1.2037    2.0453    0.0189 O   0  0
   -0.0167    1.3815    0.0096 C   0  0
    0.0021   -0.0041    0.0020 C   0  0
    1.2063   -0.6880   -0.0127 C   0  0
    2.3989    0.0021   -0.0205 C   0  0
    2.3970    1.4015   -0.0134 C   0  0
    1.1773    2.0931    0.0021 C   0  0
    1.1627    3.4512    0.0091 O   0  0
    1.1676    4.0935    1.2856 C   0  0
    3.6670    2.1425   -0.0221 C   0  0
    4.8376    1.4737   -0.0369 C   0  0
    6.1043    2.2128   -0.0455 C   0  0
    7.3354    1.5165   -0.0611 C   0  0
    8.4890    2.2263   -0.0693 C   0  0
    8.4346    3.5885   -0.0623 N   0  5
    7.2487    4.2237   -0.0480 C   0  0
    7.2221    5.4433   -0.0424 O   0  0
    6.1039    3.5449   -0.0444 N   0  0
    9.8188    1.5176   -0.0854 C   0  0  1  0  0  0
    9.6100    0.1342   -0.0894 F   0  0
   10.5293    1.8853   -1.2330 F   0  0
   10.5517    1.8753    1.0514 F   0  0
   -2.3278    0.6008    0.9055 H   0  0
   -2.3362    0.6106   -0.8727 H   0  0
   -3.3091    1.8570    0.0279 H   0  0
   -0.9448   -0.5639    0.0077 H   0  0
    1.2107   -1.7880   -0.0182 H   0  0
    3.3521   -0.5468   -0.0323 H   0  0
    2.0656    3.7339    1.8093 H   0  0
    0.2875    3.7147    1.8258 H   0  0
    1.1550    5.1908    1.2098 H   0  0
    3.6620    3.2425   -0.0165 H   0  0
    4.8426    0.3737   -0.0425 H   0  0
    7.3556    0.4167   -0.0665 H   0  0
  1  2  1  0
  2  3  1  0
  3  8  2  0
  3  4  1  0
  4  5  2  0
  5  6  1  0
  6  7  2  0
  7  8  1  0
  7 11  1  0
  8  9  1  0
  9 10  1  0
 11 12  2  0
 12 13  1  0
 13 19  2  0
 13 14  1  0
 14 15  2  0
 15 16  1  0
 15 20  1  0
 16 17  1  0
 17 18  2  0
 17 19  1  0
 20 21  1  0
 20 22  1  0
 20 23  1  0
  1 24  1  0
  1 25  1  0
  1 26  1  0
  4 27  1  0
  5 28  1  0
  6 29  1  0
 10 30  1  0
 10 31  1  0
 10 32  1  0
 11 33  1  0
 12 34  1  0
 14 35  1  0
M  CHG  1  16  -1
M  END
> <Name>
ZINC04115225

> <reference>
BDB50018850

> <quality>
0.830

> <status>
decoy

$$$$
ZINC24546999
  SciTegic06061311253D

 38 39  0  0  1  0            999 V2000
   -5.3185    1.6128    1.4751 C   0  0
   -4.8488    1.8047    0.0317 C   0  0  1  0  0  0
   -5.7643    2.7747   -0.6697 C   0  0
   -5.3193    3.8062   -1.1269 O   0  0
   -7.0775    2.4960   -0.7890 N   0  5
   -7.9675    3.4390   -1.4709 C   0  0  2  0  0  0
   -7.9398    4.7842   -0.7424 C   0  0
   -8.8693    5.7690   -1.4546 C   0  0
  -10.2961    5.2167   -1.4517 C   0  0
  -10.3238    3.8716   -2.1802 C   0  0
   -9.3943    2.8867   -1.4680 C   0  0
   -7.5156    3.6236   -2.8596 C   0  0
   -7.1668    3.7661   -3.9313 N   0  0
   -3.5161    2.3205    0.0290 O   0  0
   -2.5110    1.4206    0.0200 C   0  0
   -2.7606    0.2300    0.0146 O   0  0
   -1.1206    1.8766    0.0168 C   0  0
   -0.0126    1.0758    0.0080 C   0  0
    1.1009    1.9275    0.0019 C   0  0
    0.6315    3.1977    0.0124 C   0  0
   -0.7073    3.1618    0.0245 O   0  0
    1.6046    4.6353    0.0105 Cl  0  0
   -6.3442    1.2155    1.4783 H   0  0
   -5.2987    2.5794    1.9998 H   0  0
   -4.6506    0.9048    1.9877 H   0  0
   -4.8687    0.8376   -0.4920 H   0  0
   -6.9144    5.1823   -0.7441 H   0  0
   -8.2781    4.6465    0.2952 H   0  0
   -8.8500    6.7360   -0.9307 H   0  0
   -8.5326    5.9075   -2.4926 H   0  0
  -10.9653    5.9239   -1.9636 H   0  0
  -10.6337    5.0781   -0.4140 H   0  0
  -11.3495    3.4742   -2.1778 H   0  0
   -9.9860    4.0084   -3.2181 H   0  0
   -9.4144    1.9198   -1.9922 H   0  0
   -9.7331    2.7486   -0.4306 H   0  0
    0.0023   -0.0241    0.0061 H   0  0
    2.1574    1.6215   -0.0093 H   0  0
  1  2  1  0
  2  3  1  0
  2 14  1  0
  3  4  2  0
  3  5  1  0
  5  6  1  0
  6 11  1  0
  6  7  1  0
  6 12  1  0
  7  8  1  0
  8  9  1  0
  9 10  1  0
 10 11  1  0
 12 13  3  0
 14 15  1  0
 15 16  2  0
 15 17  1  0
 17 21  1  0
 17 18  2  0
 18 19  1  0
 19 20  2  0
 20 21  1  0
 20 22  1  0
  1 23  1  0
  1 24  1  0
  1 25  1  0
  2 26  1  0
  7 27  1  0
  7 28  1  0
  8 29  1  0
  8 30  1  0
  9 31  1  0
  9 32  1  0
 10 33  1  0
 10 34  1  0
 11 35  1  0
 11 36  1  0
 18 37  1  0
 19 38  1  0
M  CHG  1   5  -1
M  END
> <Name>
ZINC24546999

> <reference>
BDB50018850

> <quality>
0.829

> <status>
decoy

$$$$
ZINC03029345
  SciTegic06061311253D

 35 37  0  0  0  0            999 V2000
    0.6250    1.4084    0.0560 C   0  0
   -0.1578    1.8279    1.1755 O   0  0
    0.2180    1.3753    2.3900 C   0  0
    1.1847    0.6440    2.4942 O   0  0
   -0.5362    1.7635    3.5801 C   0  0
   -0.3213    1.4051    4.9186 C   0  0
   -1.2042    1.9338    5.8475 C   0  0
   -2.2074    2.7373    5.4232 C   0  0
   -1.9747    2.8104    3.7077 S   0  0
    0.7860    0.5183    5.3169 C   0  0
    1.6948    0.7667    6.3214 C   0  0
    2.5658   -0.3261    6.3617 C   0  0
    2.1551   -1.2008    5.3793 C   0  0
    1.0762   -0.6726    4.7650 O   0  0
    2.7795   -2.4875    5.0605 C   0  0
    3.7509   -2.8650    5.6895 O   0  0
    2.2783   -3.2529    4.0708 N   0  0
    2.9375   -4.4268    3.6927 C   0  0
    4.3262   -4.5116    3.7628 C   0  0
    4.9329   -5.6972    3.3827 C   0  0
    4.1480   -6.7457    2.9394 C   0  0
    2.8357   -6.6318    2.8797 N   0  0
    2.2178   -5.5234    3.2365 C   0  0
    0.6052    0.3086    0.0592 H   0  0
    1.6570    1.7281    0.2627 H   0  0
    0.2575    1.8173   -0.8967 H   0  0
   -1.0908    1.7030    6.9170 H   0  0
   -2.9864    3.2280    6.0252 H   0  0
    1.7289    1.6555    6.9686 H   0  0
    3.4160   -0.4617    7.0464 H   0  0
    1.4098   -2.9732    3.5930 H   0  0
    4.9261   -3.6580    4.1114 H   0  0
    6.0266   -5.8035    3.4329 H   0  0
    4.6250   -7.6881    2.6322 H   0  0
    1.1212   -5.4665    3.1722 H   0  0
  1  2  1  0
  2  3  1  0
  3  4  2  0
  3  5  1  0
  5  9  1  0
  5  6  2  0
  6  7  1  0
  6 10  1  0
  7  8  2  0
  8  9  1  0
 10 14  1  0
 10 11  2  0
 11 12  1  0
 12 13  2  0
 13 14  1  0
 13 15  1  0
 15 16  2  0
 15 17  1  0
 17 18  1  0
 18 23  2  0
 18 19  1  0
 19 20  2  0
 20 21  1  0
 21 22  2  0
 22 23  1  0
  1 24  1  0
  1 25  1  0
  1 26  1  0
  7 27  1  0
  8 28  1  0
 11 29  1  0
 12 30  1  0
 17 31  1  0
 19 32  1  0
 20 33  1  0
 21 34  1  0
 23 35  1  0
M  END
> <Name>
ZINC03029345

> <reference>
BDB50018850

> <quality>
0.824

> <status>
decoy

$$$$
ZINC06261845
  SciTegic06061311253D

 41 43  0  0  1  0            999 V2000
    2.1158   -0.3806   -0.1742 C   0  0
    2.2213    1.0302    0.4187 C   0  0
    0.9651    1.8132    0.0309 C   0  0
   -0.2625    1.0075    0.3407 C   0  0
   -0.2570   -0.2689    0.5556 C   0  0
    0.9789   -1.1198    0.5348 C   0  0
   -1.5846    1.7283    0.3994 C   0  0
   -1.7824    2.3179    1.7974 C   0  0
   -3.0677    3.0186    1.8544 N   0  0
   -3.1223    4.3307    1.5410 C   0  0
   -2.1213    4.9401    1.2121 O   0  0
   -4.4324    4.9995    1.6048 C   0  5
   -4.5752    6.3390    1.2952 C   0  0
   -5.8057    6.8836    1.2089 N   0  0
   -5.9554    8.3260    1.0009 C   0  0  2  0  0  0
   -7.0109    9.0543    1.8353 C   0  0
   -7.2474    8.8146    0.3429 C   0  0
   -5.5865    4.1761    2.0203 C   0  0
   -6.7029    4.6609    2.1005 O   0  0
   -5.3775    2.8826    2.3069 N   0  0
   -4.1856    2.3365    2.2280 C   0  0
   -4.0243    0.6278    2.6267 S   0  5
    3.0619   -0.9189   -0.0154 H   0  0
    1.8989   -0.3126   -1.2505 H   0  0
    3.1104    1.5363    0.0144 H   0  0
    2.2920    0.9659    1.5145 H   0  0
    0.9339    2.7566    0.5958 H   0  0
    0.9913    2.0376   -1.0457 H   0  0
   -1.2181   -0.7605    0.7666 H   0  0
    0.7660   -2.0587    0.0026 H   0  0
    1.2798   -1.3501    1.5675 H   0  0
   -1.5939    2.5387   -0.3444 H   0  0
   -2.3989    1.0214    0.1818 H   0  0
   -0.9696    3.0260    2.0163 H   0  0
   -1.7736    1.5080    2.5417 H   0  0
   -3.6850    6.9607    1.1192 H   0  0
   -4.8818    8.4678    0.8080 H   0  0
   -6.7197   10.0962    2.0344 H   0  0
   -7.5911    8.3528    2.4527 H   0  0
   -7.9527    7.9874    0.1749 H   0  0
   -7.0799    9.7301   -0.2435 H   0  0
  1  6  1  0
  1  2  1  0
  2  3  1  0
  3  4  1  0
  4  5  2  0
  4  7  1  0
  5  6  1  0
  7  8  1  0
  8  9  1  0
  9 21  1  0
  9 10  1  0
 10 11  2  0
 10 12  1  0
 12 18  1  0
 12 13  1  0
 13 14  2  0
 14 15  1  0
 15 17  1  0
 15 16  1  0
 16 17  1  0
 18 19  2  0
 18 20  1  0
 20 21  2  0
 21 22  1  0
  1 23  1  0
  1 24  1  0
  2 25  1  0
  2 26  1  0
  3 27  1  0
  3 28  1  0
  5 29  1  0
  6 30  1  0
  6 31  1  0
  7 32  1  0
  7 33  1  0
  8 34  1  0
  8 35  1  0
 13 36  1  0
 15 37  1  0
 16 38  1  0
 16 39  1  0
 17 40  1  0
 17 41  1  0
M  CHG  2  12  -1  22  -1
M  END
> <Name>
ZINC06261845

> <reference>
BDB50018850

> <quality>
0.798

> <status>
decoy

$$$$
ZINC09939661
  SciTegic06061311253D

 35 37  0  0  0  0            999 V2000
  -11.3002    1.5427   -1.8382 C   0  0
   -9.8435    1.6761   -1.4757 C   0  0
   -8.8574    2.2533   -2.1317 N   0  0
   -7.6778    2.2792   -1.6860 N   0  0
   -7.3572    1.7240   -0.5240 C   0  0
   -8.9582    1.0886   -0.0346 S   0  0
   -5.8013    1.6318    0.2977 S   0  0
   -4.7631    2.5119   -0.8955 C   0  0
   -3.3446    2.5589   -0.3887 C   0  0
   -2.7967    3.5628    0.4156 C   0  0
   -1.4991    3.2393    0.6612 C   0  0
   -1.2411    2.0692    0.0192 N   0  0
   -2.4173    1.6665   -0.6263 N   0  0
   -0.0168    1.3841    0.0097 C   0  0
    1.1763    2.0941    0.0021 C   0  0
    2.3808    1.4193   -0.0131 C   0  0
    2.3991    0.0321   -0.0207 C   0  0
    1.2072   -0.6778   -0.0131 C   0  0
    0.0021   -0.0041    0.0020 C   0  0
    3.5853   -0.6317   -0.0360 O   0  0
    4.7732    0.1625   -0.0431 C   0  0
   -0.6208    3.9556    1.4086 O   0  5
  -11.7497    1.9339   -0.9136 H   0  0
  -11.4126    0.4545   -1.7238 H   0  0
  -11.6922    1.9662   -2.7747 H   0  0
   -5.1397    3.5373   -1.0247 H   0  0
   -4.7895    1.9871   -1.8619 H   0  0
   -3.3223    4.4560    0.7843 H   0  0
    1.1620    3.1940    0.0082 H   0  0
    3.3261    1.9817   -0.0192 H   0  0
    1.2222   -1.7777   -0.0191 H   0  0
   -0.9429   -0.5672    0.0079 H   0  0
    4.7227    0.8024    0.8502 H   0  0
    4.7054    0.8124   -0.9280 H   0  0
    5.6906   -0.4443   -0.0555 H   0  0
  1  2  1  0
  2  6  1  0
  2  3  2  0
  3  4  1  0
  4  5  2  0
  5  6  1  0
  5  7  1  0
  7  8  1  0
  8  9  1  0
  9 13  2  0
  9 10  1  0
 10 11  2  0
 11 12  1  0
 11 22  1  0
 12 13  1  0
 12 14  1  0
 14 19  2  0
 14 15  1  0
 15 16  2  0
 16 17  1  0
 17 18  2  0
 17 20  1  0
 18 19  1  0
 20 21  1  0
  1 23  1  0
  1 24  1  0
  1 25  1  0
  8 26  1  0
  8 27  1  0
 10 28  1  0
 15 29  1  0
 16 30  1  0
 18 31  1  0
 19 32  1  0
 21 33  1  0
 21 34  1  0
 21 35  1  0
M  CHG  1  22  -1
M  END
> <Name>
ZINC09939661

> <reference>
BDB50018850

> <quality>
0.793

> <status>
decoy

$$$$
ZINC09268779
  SciTegic06061311253D

 29 30  0  0  0  0            999 V2000
    8.7064   -0.8025    3.6196 C   0  0
    7.8413   -0.6730    2.3643 C   0  0
    8.3806    0.3853    1.5067 N   0  0
    7.8882    0.5048   -0.0699 S   0  0
    7.9973   -0.7969   -0.6292 O   0  0
    8.5596    1.6295   -0.6209 O   0  0
    6.1718    0.9026   -0.0509 C   0  0
    5.5783    2.1246   -0.0385 C   0  0
    4.2038    2.2026   -0.0314 C   0  0
    3.4781    1.0410   -0.0251 C   0  0
    4.7650   -0.1965   -0.0440 S   0  0
    2.0117    0.8593   -0.0125 C   0  0
    1.3012   -0.3759   -0.0124 C   0  0
    0.0021   -0.0041    0.0020 C   0  0
   -0.0161    1.3368    0.0094 O   0  0
    1.0995    1.8029    0.0012 N   0  0
   -1.1950   -0.9195    0.0085 C   0  0  1  0  0  0
   -1.5532   -1.2094    1.3295 F   0  0
   -2.2654   -0.2920   -0.6379 F   0  0
   -0.8778   -2.1068   -0.6599 F   0  0
    8.7029    0.1507    4.1685 H   0  0
    9.7374   -1.0550    3.3312 H   0  0
    8.3020   -1.5970    4.2640 H   0  0
    6.8102   -0.4205    2.6526 H   0  0
    7.8456   -1.6265    1.8159 H   0  0
    9.0660    1.0550    1.8844 H   0  0
    6.1882    3.0400   -0.0342 H   0  0
    3.6979    3.1794   -0.0308 H   0  0
    1.7143   -1.3953   -0.0219 H   0  0
  1  2  1  0
  2  3  1  0
  3  4  1  0
  4  5  2  0
  4  6  2  0
  4  7  1  0
  7 11  1  0
  7  8  2  0
  8  9  1  0
  9 10  2  0
 10 11  1  0
 10 12  1  0
 12 16  2  0
 12 13  1  0
 13 14  2  0
 14 15  1  0
 14 17  1  0
 15 16  1  0
 17 18  1  0
 17 19  1  0
 17 20  1  0
  1 21  1  0
  1 22  1  0
  1 23  1  0
  2 24  1  0
  2 25  1  0
  3 26  1  0
  8 27  1  0
  9 28  1  0
 13 29  1  0
M  END
> <Name>
ZINC09268779

> <reference>
BDB50018850

> <quality>
0.791

> <status>
decoy

$$$$
ZINC27644002
  SciTegic06061311253D

 47 49  0  0  1  0            999 V2000
    4.1689   12.9734   -1.6189 C   0  0
    3.7817   11.6037   -1.0578 C   0  0  1  0  0  0
    2.5419   11.0833   -1.7899 C   0  0
    2.2204    9.7347   -1.3007 N   0  0
    3.3518    8.8202   -1.5126 C   0  0  2  0  0  0
    4.5835    9.3633   -0.7834 C   0  0
    4.8622   10.6865   -1.2492 O   0  0
    3.6497    8.7144   -3.0096 C   0  0
    1.0010    9.2202   -1.9383 C   0  0
    0.7590    7.8024   -1.4886 C   0  0
    0.1424    7.4276   -0.3955 N   0  0
    0.1640    6.0755   -0.4118 C   0  0
    0.7911    5.7125   -1.5008 N   0  0
    1.1332    6.6912   -2.1304 O   0  0
   -0.4103    5.1731    0.6161 C   0  0
   -1.0493    5.7062    1.7342 C   0  0
   -1.5833    4.8666    2.6899 C   0  0
   -1.4915    3.4910    2.5375 C   0  0
   -0.8490    2.9529    1.4251 C   0  0
   -0.3119    3.7910    0.4649 C   0  0
   -0.7545    1.6040    1.2804 O   0  0
   -0.0875    1.1220    0.1122 C   0  0
   -2.0245    2.6669    3.4779 O   0  0
   -2.6691    3.2862    4.5929 C   0  0
    4.3857   12.8823   -2.6935 H   0  0
    5.0620   13.3457   -1.0957 H   0  0
    3.3380   13.6791   -1.4718 H   0  0
    3.5636   11.6981    0.0162 H   0  0
    1.6926   11.7554   -1.5974 H   0  0
    2.7423   11.0430   -2.8707 H   0  0
    3.0998    7.8241   -1.1198 H   0  0
    5.4477    8.7137   -0.9862 H   0  0
    4.3880    9.3890    0.2988 H   0  0
    3.9040    9.7089   -3.4048 H   0  0
    2.7635    8.3279   -3.5342 H   0  0
    4.4962    8.0302   -3.1685 H   0  0
    0.1441    9.8469   -1.6504 H   0  0
    1.1204    9.2420   -3.0316 H   0  0
   -1.1279    6.7968    1.8547 H   0  0
   -2.0828    5.2889    3.5743 H   0  0
    0.1920    3.3676   -0.4165 H   0  0
    0.9212    1.5605    0.1289 H   0  0
   -0.6256    1.5462   -0.7483 H   0  0
   -0.0510    0.0236    0.0657 H   0  0
   -3.4602    3.9269    4.1761 H   0  0
   -1.9177    3.9391    5.0610 H   0  0
   -3.0743    2.5564    5.3093 H   0  0
  1  2  1  0
  2  7  1  0
  2  3  1  0
  3  4  1  0
  4  5  1  0
  4  9  1  0
  5  6  1  0
  5  8  1  0
  6  7  1  0
  9 10  1  0
 10 14  1  0
 10 11  2  0
 11 12  1  0
 12 13  2  0
 12 15  1  0
 13 14  1  0
 15 20  2  0
 15 16  1  0
 16 17  2  0
 17 18  1  0
 18 19  2  0
 18 23  1  0
 19 20  1  0
 19 21  1  0
 21 22  1  0
 23 24  1  0
  1 25  1  0
  1 26  1  0
  1 27  1  0
  2 28  1  0
  3 29  1  0
  3 30  1  0
  5 31  1  0
  6 32  1  0
  6 33  1  0
  8 34  1  0
  8 35  1  0
  8 36  1  0
  9 37  1  0
  9 38  1  0
 16 39  1  0
 17 40  1  0
 20 41  1  0
 22 42  1  0
 22 43  1  0
 22 44  1  0
 24 45  1  0
 24 46  1  0
 24 47  1  0
M  END
> <Name>
ZINC27644002

> <reference>
BDB50018850

> <quality>
0.790

> <status>
decoy

$$$$
ZINC05625519
  SciTegic06061311253D

 47 48  0  0  0  0            999 V2000
    4.0868    2.4409    1.4128 C   0  0
    3.6876    2.0919   -0.0224 C   0  0
    2.3688    1.3628   -0.0137 C   0  0
    1.2081    2.0523    0.0015 C   0  0
   -0.0161    1.3356    0.0094 C   0  0
   -1.0800    1.9360    0.0177 O   0  0
    0.0021   -0.0041    0.0020 N   0  0
    1.1449   -0.6612   -0.0124 C   0  0
    2.3350   -0.0021   -0.0207 N   0  0
    1.1307   -2.4231   -0.0218 S   0  0
   -0.6542   -2.7231   -0.0063 C   0  0
   -0.9142   -4.2075   -0.0118 C   0  0
    0.0157   -4.9860   -0.0249 O   0  0
   -2.1801   -4.6700   -0.0022 N   0  0
   -3.3034   -3.7297    0.0136 C   0  0
   -2.4328   -6.1130   -0.0075 C   0  0  2  0  0  0
   -3.2431   -6.4843   -1.2511 C   0  0
   -3.5070   -7.9914   -1.2567 C   0  0
   -4.2935   -8.3760   -0.0019 C   0  0
   -3.4832   -8.0048    1.2416 C   0  0
   -3.2192   -6.4977    1.2472 C   0  0
    1.2130    3.5593    0.0091 C   0  0
    4.1831    1.5174    2.0026 H   0  0
    3.3161    3.0840    1.8628 H   0  0
    5.0494    2.9732    1.4072 H   0  0
    3.5912    3.0159   -0.6113 H   0  0
    4.4583    1.4489   -0.4725 H   0  0
    3.2158   -0.5359   -0.0323 H   0  0
   -1.1113   -2.2682   -0.8975 H   0  0
   -1.0931   -2.2779    0.8988 H   0  0
   -3.1555   -3.0915   -0.8701 H   0  0
   -3.1386   -3.1011    0.9011 H   0  0
   -4.2906   -4.2148    0.0204 H   0  0
   -1.4745   -6.6530   -0.0195 H   0  0
   -2.6785   -6.2083   -2.1539 H   0  0
   -4.2016   -5.9448   -1.2389 H   0  0
   -4.0901   -8.2584   -2.1504 H   0  0
   -2.5493   -8.5324   -1.2685 H   0  0
   -4.4837   -9.4594   -0.0047 H   0  0
   -5.2515   -7.8355    0.0106 H   0  0
   -4.0488   -8.2808    2.1438 H   0  0
   -2.5246   -8.5442    1.2304 H   0  0
   -2.6365   -6.2314    2.1414 H   0  0
   -4.1778   -5.9584    1.2602 H   0  0
    1.7935    3.8450   -0.8805 H   0  0
    1.8113    3.8360    0.8897 H   0  0
    0.2094    4.0093    0.0215 H   0  0
  1  2  1  0
  2  3  1  0
  3  9  1  0
  3  4  2  0
  4  5  1  0
  4 22  1  0
  5  6  2  0
  5  7  1  0
  7  8  2  0
  8  9  1  0
  8 10  1  0
 10 11  1  0
 11 12  1  0
 12 13  2  0
 12 14  1  0
 14 15  1  0
 14 16  1  0
 16 21  1  0
 16 17  1  0
 17 18  1  0
 18 19  1  0
 19 20  1  0
 20 21  1  0
  1 23  1  0
  1 24  1  0
  1 25  1  0
  2 26  1  0
  2 27  1  0
  9 28  1  0
 11 29  1  0
 11 30  1  0
 15 31  1  0
 15 32  1  0
 15 33  1  0
 16 34  1  0
 17 35  1  0
 17 36  1  0
 18 37  1  0
 18 38  1  0
 19 39  1  0
 19 40  1  0
 20 41  1  0
 20 42  1  0
 21 43  1  0
 21 44  1  0
 22 45  1  0
 22 46  1  0
 22 47  1  0
M  END
> <Name>
ZINC05625519

> <reference>
BDB50018850

> <quality>
0.789

> <status>
decoy

$$$$
ZINC26955375
  SciTegic06061311253D

 37 38  0  0  1  0            999 V2000
   -1.0883    1.6649   -6.1250 C   0  0
   -0.2809    1.2642   -4.8887 C   0  0  1  0  0  0
    1.1117    1.8936   -4.9631 C   0  0
   -0.9970    1.7576   -3.6299 C   0  0  1  0  0  0
   -1.0178    3.2875   -3.6215 C   0  0
   -2.3780    1.2481   -3.6195 C   0  0
   -3.4437    0.8549   -3.6114 N   0  0
   -0.2884    1.2723   -2.4431 N   0  0
   -0.7416    1.5850   -1.2129 C   0  0
   -1.7359    2.2682   -1.0884 O   0  0
   -0.0127    1.0858    0.0080 C   0  0
   -0.8599    1.6695    1.4972 S   0  0
    0.1742    0.9607    2.7352 C   0  0
   -0.0969    1.1485    4.0802 C   0  0
    0.7274    0.5835    5.0765 C   0  0
    0.3404    0.8509    6.4014 C   0  0
   -0.7505    1.6005    6.6497 C   0  0
   -1.3389    2.0027    5.0129 S   0  0
    1.7810   -0.1412    4.6230 N   0  0
    2.0024   -0.2953    3.3436 C   0  0
    1.2355    0.2245    2.4012 N   0  0
   -0.5744    1.3103   -7.0306 H   0  0
   -1.1833    2.7601   -6.1631 H   0  0
   -2.0897    1.2127   -6.0722 H   0  0
   -0.1868    0.1689   -4.8514 H   0  0
    1.0187    2.9890   -5.0001 H   0  0
    1.6276    1.5392   -5.8677 H   0  0
    1.6928    1.6059   -4.0745 H   0  0
   -1.5499    3.6529   -4.5122 H   0  0
    0.0138    3.6693   -3.6291 H   0  0
   -1.5325    3.6429   -2.7167 H   0  0
    0.5561    0.6922   -2.5488 H   0  0
    0.0018   -0.0141    0.0025 H   0  0
    1.0194    1.4662    0.0014 H   0  0
    0.9302    0.4468    7.2374 H   0  0
   -1.1746    1.8929    7.6216 H   0  0
    2.8747   -0.8901    3.0348 H   0  0
  1  2  1  0
  2  3  1  0
  2  4  1  0
  4  5  1  0
  4  6  1  0
  4  8  1  0
  6  7  3  0
  8  9  1  0
  9 10  2  0
  9 11  1  0
 11 12  1  0
 12 13  1  0
 13 21  1  0
 13 14  2  0
 14 18  1  0
 14 15  1  0
 15 16  1  0
 15 19  2  0
 16 17  2  0
 17 18  1  0
 19 20  1  0
 20 21  2  0
  1 22  1  0
  1 23  1  0
  1 24  1  0
  2 25  1  0
  3 26  1  0
  3 27  1  0
  3 28  1  0
  5 29  1  0
  5 30  1  0
  5 31  1  0
  8 32  1  0
 11 33  1  0
 11 34  1  0
 16 35  1  0
 17 36  1  0
 20 37  1  0
M  END
> <Name>
ZINC26955375

> <reference>
BDB50018850

> <quality>
0.788

> <status>
decoy

$$$$
ZINC05031692
  SciTegic06061311253D

 36 38  0  0  1  0            999 V2000
   -5.9591   -4.2804   -7.3134 C   0  0
   -7.0380   -3.7500   -8.0189 C   0  0
   -7.2598   -2.4079   -8.0538 C   0  0
   -6.3909   -1.5399   -7.3698 C   0  0
   -5.2936   -2.0794   -6.6524 C   0  0
   -5.0971   -3.4714   -6.6397 C   0  0
   -4.4635   -1.2588   -5.9993 N   0  0
   -4.6723    0.0373   -6.0286 C   0  0
   -5.7576    0.5697   -6.7312 C   0  0
   -6.5836   -0.2164   -7.3854 N   0  0
   -6.0124    2.2868   -6.7462 Cl  0  0
   -3.7358    0.9602   -5.2922 C   0  5
   -2.3725    0.8028   -5.8244 C   0  0
   -1.3203    0.6813   -6.2352 N   0  0
   -3.7446    0.6182   -3.8245 C   0  0
   -4.4400   -0.2825   -3.4182 O   0  0
   -2.9800    1.3143   -2.9686 O   0  0
   -3.0388    0.9298   -1.5696 C   0  0
   -2.1074    1.8289   -0.7541 C   0  0  1  0  0  0
   -2.2494    1.5042    0.7485 C   0  0
   -0.7801    1.6064    1.2493 C   0  0
   -0.0127    1.0858    0.0080 C   0  0
   -0.7460    1.5807   -1.1237 O   0  0
   -5.8023   -5.3691   -7.3011 H   0  0
   -7.7200   -4.4262   -8.5552 H   0  0
   -8.1154   -2.0039   -8.6148 H   0  0
   -4.2501   -3.9047   -6.0875 H   0  0
   -4.0695    1.0408   -1.2017 H   0  0
   -2.7220   -0.1181   -1.4625 H   0  0
   -2.3769    2.8771   -0.9508 H   0  0
   -2.8752    2.2600    1.2457 H   0  0
   -2.6284    0.4807    0.8855 H   0  0
   -0.6183    0.9391    2.1087 H   0  0
   -0.5153    2.6544    1.4533 H   0  0
    1.0100    1.4909    0.0020 H   0  0
   -0.0076   -0.0142    0.0029 H   0  0
  1  6  1  0
  1  2  2  0
  2  3  1  0
  3  4  2  0
  4 10  1  0
  4  5  1  0
  5  6  2  0
  5  7  1  0
  7  8  2  0
  8  9  1  0
  8 12  1  0
  9 10  2  0
  9 11  1  0
 12 13  1  0
 12 15  1  0
 13 14  3  0
 15 16  2  0
 15 17  1  0
 17 18  1  0
 18 19  1  0
 19 23  1  0
 19 20  1  0
 20 21  1  0
 21 22  1  0
 22 23  1  0
  1 24  1  0
  2 25  1  0
  3 26  1  0
  6 27  1  0
 18 28  1  0
 18 29  1  0
 19 30  1  0
 20 31  1  0
 20 32  1  0
 21 33  1  0
 21 34  1  0
 22 35  1  0
 22 36  1  0
M  CHG  1  12  -1
M  END
> <Name>
ZINC05031692

> <reference>
BDB50018850

> <quality>
0.785

> <status>
decoy

$$$$
ZINC03171910
  SciTegic06061311253D

 29 29  0  0  0  0            999 V2000
   -4.2747   -5.6093    0.0137 C   0  0
   -2.7452   -5.5722   -0.0004 C   0  0
   -2.3017   -4.2137    0.0019 O   0  0
   -0.9687   -4.0045   -0.0095 C   0  0
   -0.2044   -4.9511   -0.0212 O   0  0
   -0.4428   -2.6406   -0.0079 C   0  0
    0.8730   -2.2230   -0.0182 C   0  0
    1.1081   -0.8582   -0.0131 C   0  0
    0.0021   -0.0041    0.0020 C   0  0
   -1.3402   -1.1003    0.0166 S   0  0
   -0.0167    1.3781    0.0096 N   0  0
   -1.1929    2.0361    0.0188 C   0  0
   -2.2348    1.4155    0.0203 O   0  0
   -1.2133    3.5429    0.0271 C   0  0
    2.4425   -0.3386   -0.0226 C   0  0
    3.5010    0.0737   -0.0301 N   0  0
    2.0088   -3.2133   -0.0349 C   0  0
    2.5206   -3.6546    1.8113 Br  0  0
   -4.6632   -5.0960   -0.8782 H   0  0
   -4.6464   -5.1045    0.9176 H   0  0
   -4.6168   -6.6548    0.0119 H   0  0
   -2.3576   -6.0854    0.8920 H   0  0
   -2.3734   -6.0770   -0.9042 H   0  0
    0.8682    1.9052    0.0082 H   0  0
   -0.6361    3.8429   -0.8599 H   0  0
   -0.6276    3.8333    0.9118 H   0  0
   -2.2261    3.9720    0.0343 H   0  0
    2.8711   -2.7752   -0.5588 H   0  0
    1.6899   -4.1286   -0.5550 H   0  0
  1  2  1  0
  2  3  1  0
  3  4  1  0
  4  5  2  0
  4  6  1  0
  6 10  1  0
  6  7  2  0
  7  8  1  0
  7 17  1  0
  8  9  2  0
  8 15  1  0
  9 10  1  0
  9 11  1  0
 11 12  1  0
 12 13  2  0
 12 14  1  0
 15 16  3  0
 17 18  1  0
  1 19  1  0
  1 20  1  0
  1 21  1  0
  2 22  1  0
  2 23  1  0
 11 24  1  0
 14 25  1  0
 14 26  1  0
 14 27  1  0
 17 28  1  0
 17 29  1  0
M  END
> <Name>
ZINC03171910

> <reference>
BDB50018850

> <quality>
0.777

> <status>
decoy

$$$$
ZINC25218119
  SciTegic06061311253D

 42 43  0  0  0  0            999 V2000
    3.5410    6.4067    6.0128 C   0  0
    3.4076    5.2923    4.9730 C   0  0  2  0  0  0
    2.0731    4.5699    5.1680 C   0  0
    4.5564    4.2961    5.1429 C   0  0
    3.4592    5.8874    3.5895 C   0  0
    3.5903    7.0889    3.4485 O   0  0
    3.3571    5.0634    2.4739 C   0  0
    3.4044    5.6090    1.2055 C   0  0
    3.3203    4.9573   -0.0030 N   0  0
    3.3844    5.5955   -1.1591 C   0  0
    3.3142    5.0144   -2.2209 O   0  0
    3.5471    7.1047   -1.0728 C   0  0
    3.5898    7.3264    0.7498 S   0  0
    3.1598    3.5011   -0.0093 C   0  0
    1.6925    3.1575    0.0029 C   0  0
    0.8616    4.0430    0.0155 O   0  0
    1.2835    1.8044   -0.0005 C   0  0
    2.1141    0.6971   -0.0144 C   0  0
    1.2899   -0.4295   -0.0126 C   0  0
    0.0021   -0.0041    0.0020 C   0  0
   -0.0162    1.3445    0.0094 N   0  0
   -1.2182    2.1820    0.0199 C   0  0
    3.5037    5.9733    7.0231 H   0  0
    2.7156    7.1237    5.8914 H   0  0
    4.5003    6.9265    5.8732 H   0  0
    1.2464    5.2852    5.0458 H   0  0
    2.0345    4.1349    6.1776 H   0  0
    1.9765    3.7685    4.4207 H   0  0
    4.5195    3.8609    6.1525 H   0  0
    5.5164    4.8145    5.0026 H   0  0
    4.4611    3.4946    4.3956 H   0  0
    3.2387    3.9772    2.6014 H   0  0
    4.5044    7.4225   -1.5116 H   0  0
    2.6706    7.6200   -1.4925 H   0  0
    3.6431    3.0739    0.8818 H   0  0
    3.6259    3.0846   -0.9145 H   0  0
    3.2140    0.7037   -0.0249 H   0  0
    1.6255   -1.4770   -0.0215 H   0  0
   -0.8850   -0.6545    0.0070 H   0  0
   -1.0690    2.8276   -0.8581 H   0  0
   -1.0550    2.8257    0.8968 H   0  0
   -2.1841    1.6556    0.0271 H   0  0
  1  2  1  0
  2  3  1  0
  2  4  1  0
  2  5  1  0
  5  6  2  0
  5  7  1  0
  7  8  2  0
  8 13  1  0
  8  9  1  0
  9 10  1  0
  9 14  1  0
 10 11  2  0
 10 12  1  0
 12 13  1  0
 14 15  1  0
 15 16  2  0
 15 17  1  0
 17 21  1  0
 17 18  2  0
 18 19  1  0
 19 20  2  0
 20 21  1  0
 21 22  1  0
  1 23  1  0
  1 24  1  0
  1 25  1  0
  3 26  1  0
  3 27  1  0
  3 28  1  0
  4 29  1  0
  4 30  1  0
  4 31  1  0
  7 32  1  0
 12 33  1  0
 12 34  1  0
 14 35  1  0
 14 36  1  0
 18 37  1  0
 19 38  1  0
 20 39  1  0
 22 40  1  0
 22 41  1  0
 22 42  1  0
M  END
> <Name>
ZINC25218119

> <reference>
BDB50018850

> <quality>
0.776

> <status>
decoy

$$$$
ZINC12381151
  SciTegic06061311253D

 52 53  0  0  0  0            999 V2000
   -7.8985    1.5122   -5.0914 C   0  0
   -7.3701    0.9306   -3.7786 C   0  0  1  0  0  0
   -7.2254   -0.5865   -3.9145 C   0  0
   -6.0579    1.5231   -3.4724 C   0  0
   -5.0113    1.9957   -3.2282 C   0  0
   -3.7838    2.5501   -2.9418 C   0  0
   -2.7372    3.0227   -2.6976 C   0  0
   -1.4250    3.6152   -2.3914 C   0  0  2  0  0  0
   -1.5697    5.1323   -2.2555 C   0  0
   -0.4448    3.2957   -3.5219 C   0  0
   -0.7658    1.5994   -1.2245 C   0  0
   -0.0127    1.0858    0.0080 C   0  0
   -0.7332    1.5800    1.2449 C   0  0
   -1.0135    0.8270    2.1464 O   0  0
   -1.0919    3.0499    1.3125 C   0  0
   -1.7764    3.4387   -0.0029 C   0  0
   -8.5607    2.6817   -2.6056 C   0  0
   -9.7196    2.9403   -1.6360 C   0  0
   -9.3980    2.2616   -0.3210 C   0  0
   -9.4995    2.8524    0.7273 O   0  0
   -8.9453    0.8172   -0.3645 C   0  0
   -7.8357    0.6934   -1.4149 C   0  0
   -0.8885    3.0709   -1.1278 N   0  0
   -8.3384    1.2222   -2.7024 N   0  0
   -8.8793    1.0702   -5.3210 H   0  0
   -7.1943    1.2832   -5.9048 H   0  0
   -8.0028    2.6029   -4.9944 H   0  0
   -6.5206   -0.8173   -4.7269 H   0  0
   -8.2056   -1.0303   -4.1431 H   0  0
   -6.8455   -1.0053   -2.9709 H   0  0
   -2.2741    5.3632   -1.4428 H   0  0
   -1.9493    5.5515   -3.1990 H   0  0
   -0.5894    5.5758   -2.0267 H   0  0
   -0.8237    3.7137   -4.4662 H   0  0
   -0.3399    2.2051   -3.6204 H   0  0
    0.5361    3.7382   -3.2937 H   0  0
   -1.7684    1.1482   -1.2594 H   0  0
   -0.2067    1.3357   -2.1343 H   0  0
    1.0168    1.4731    0.0013 H   0  0
   -0.0011   -0.0141    0.0023 H   0  0
   -1.7805    3.2242    2.1524 H   0  0
   -0.1786    3.6487    1.4440 H   0  0
   -2.7304    2.8990   -0.0954 H   0  0
   -1.9590    4.5233   -0.0178 H   0  0
   -7.6488    3.1685   -2.2296 H   0  0
   -8.8145    3.0820   -3.5983 H   0  0
  -10.6492    2.5220   -2.0494 H   0  0
   -9.8324    4.0226   -1.4750 H   0  0
   -8.5553    0.5220    0.6208 H   0  0
   -9.7911    0.1717   -0.6437 H   0  0
   -6.9589    1.2756   -1.0951 H   0  0
   -7.5571   -0.3639   -1.5351 H   0  0
  1  2  1  0
  2  3  1  0
  2  4  1  0
  2 24  1  0
  4  5  3  0
  5  6  1  0
  6  7  3  0
  7  8  1  0
  8  9  1  0
  8 10  1  0
  8 23  1  0
 11 12  1  0
 11 23  1  0
 12 13  1  0
 13 14  2  0
 13 15  1  0
 15 16  1  0
 16 23  1  0
 17 18  1  0
 17 24  1  0
 18 19  1  0
 19 20  2  0
 19 21  1  0
 21 22  1  0
 22 24  1  0
  1 25  1  0
  1 26  1  0
  1 27  1  0
  3 28  1  0
  3 29  1  0
  3 30  1  0
  9 31  1  0
  9 32  1  0
  9 33  1  0
 10 34  1  0
 10 35  1  0
 10 36  1  0
 11 37  1  0
 11 38  1  0
 12 39  1  0
 12 40  1  0
 15 41  1  0
 15 42  1  0
 16 43  1  0
 16 44  1  0
 17 45  1  0
 17 46  1  0
 18 47  1  0
 18 48  1  0
 21 49  1  0
 21 50  1  0
 22 51  1  0
 22 52  1  0
M  END
> <Name>
ZINC12381151

> <reference>
BDB50018850

> <quality>
0.768

> <status>
decoy

$$$$
ZINC19739846
  SciTegic06061311253D

 46 48  0  0  0  0            999 V2000
    4.8503   -5.0221   -1.3815 C   0  0
    5.2402   -3.5442   -1.3137 C   0  0
    4.6383   -2.9152   -0.0555 C   0  0  1  0  0  0
    5.2643   -3.5563    1.1847 C   0  0
    4.5751   -3.0178    2.4401 C   0  0
    4.9104   -1.4757   -0.0512 N   0  0
    3.9718   -0.4781   -0.0373 C   0  0
    4.6678    0.7266   -0.0377 C   0  0
    6.0350    0.4228   -0.0521 C   0  0
    6.1762   -0.8762   -0.0600 N   0  0
    7.1578    1.4281   -0.0570 C   0  0
    3.7108    1.7278   -0.0236 N   0  0
    2.4902    1.1117   -0.0153 C   0  0
    2.6613   -0.1904   -0.0178 N   0  0
    1.1838    1.8024    0.0004 C   0  0
   -0.0126    1.0758    0.0080 C   0  0
   -1.1595    1.7304    0.0169 N   0  0
   -1.1867    3.0558    0.0299 C   0  0
   -0.0759    3.7796    0.0232 N   0  0
    1.1107    3.2003    0.0087 C   0  0
   -2.4087    3.7019    0.0451 N   0  0
   -2.4631    5.1659    0.0535 C   0  0
   -3.6492    2.9227    0.0527 C   0  0
    3.7545   -5.1121   -1.4157 H   0  0
    5.2329   -5.5445   -0.4923 H   0  0
    5.2827   -5.4750   -2.2859 H   0  0
    4.8576   -3.0217   -2.2029 H   0  0
    6.3360   -3.4552   -1.2792 H   0  0
    3.5512   -3.0829   -0.0458 H   0  0
    6.3364   -3.3131    1.2230 H   0  0
    5.1373   -4.6479    1.1370 H   0  0
    3.5030   -3.2611    2.4041 H   0  0
    4.7013   -1.9262    2.4893 H   0  0
    5.0247   -3.4783    3.3322 H   0  0
    6.9322    2.0443    0.8259 H   0  0
    6.9159    2.0540   -0.9286 H   0  0
    8.1795    1.0206   -0.0688 H   0  0
    3.8853    2.7429   -0.0200 H   0  0
    0.0023   -0.0241    0.0066 H   0  0
    2.0281    3.8072    0.0032 H   0  0
   -1.8951    5.4775   -0.8355 H   0  0
   -1.8781    5.4680    0.9347 H   0  0
   -3.4837    5.5761    0.0655 H   0  0
   -3.5697    2.2686    0.9336 H   0  0
   -3.5867    2.2783   -0.8366 H   0  0
   -4.5628    3.5352    0.0648 H   0  0
  1  2  1  0
  2  3  1  0
  3  4  1  0
  3  6  1  0
  4  5  1  0
  6 10  1  0
  6  7  1  0
  7 14  1  0
  7  8  2  0
  8  9  1  0
  8 12  1  0
  9 10  2  0
  9 11  1  0
 12 13  1  0
 13 14  2  0
 13 15  1  0
 15 20  2  0
 15 16  1  0
 16 17  2  0
 17 18  1  0
 18 19  2  0
 18 21  1  0
 19 20  1  0
 21 22  1  0
 21 23  1  0
  1 24  1  0
  1 25  1  0
  1 26  1  0
  2 27  1  0
  2 28  1  0
  3 29  1  0
  4 30  1  0
  4 31  1  0
  5 32  1  0
  5 33  1  0
  5 34  1  0
 11 35  1  0
 11 36  1  0
 11 37  1  0
 12 38  1  0
 16 39  1  0
 20 40  1  0
 22 41  1  0
 22 42  1  0
 22 43  1  0
 23 44  1  0
 23 45  1  0
 23 46  1  0
M  END
> <Name>
ZINC19739846

> <reference>
BDB50018850

> <quality>
0.768

> <status>
decoy

$$$$
ZINC03533137
  SciTegic06061311253D

 43 45  0  0  0  0            999 V2000
    9.6324   -5.8685   -0.1543 C   0  0
    8.1276   -5.7895   -0.1343 C   0  0
    7.4076   -4.6553   -0.1235 C   0  0
    5.9960   -5.0616   -0.1021 C   0  0
    6.0003   -6.4437   -0.1107 C   0  0
    7.2794   -6.8588   -0.1298 N   0  0
    7.7026   -8.2613   -0.1439 C   0  0
    4.7827   -7.3317   -0.1003 C   0  0
    4.8248   -4.1826   -0.0823 C   0  0
    3.7088   -4.6591   -0.0714 O   0  0
    5.0054   -2.6865   -0.0753 C   0  0
    3.7045   -2.0420   -0.0553 O   0  0
    3.6893   -0.6946   -0.0468 C   0  0
    4.7347   -0.0753   -0.0559 O   0  0
    2.4041    0.0282   -0.0265 C   0  0
    1.2005   -0.6820   -0.0160 C   0  0
    0.0021   -0.0041    0.0020 C   0  0
   -0.0168    1.3861    0.0097 C   0  0
    1.1791    2.1000    0.0021 C   0  0
    2.3859    1.4254   -0.0172 C   0  0
    1.1773    3.4613    0.0184 O   0  0
   -0.0495    4.1076   -0.3378 C   0  0
   -1.1943    3.4113    0.4104 C   0  0
   -1.2121    2.0339    0.0189 O   0  0
    9.8325   -6.4905   -1.0392 H   0  0
    9.8553   -6.5012    0.7175 H   0  0
   10.1678   -4.9076   -0.1554 H   0  0
    7.7976   -3.6268   -0.1295 H   0  0
    8.3725   -8.3271    0.7261 H   0  0
    8.3496   -8.3163   -1.0318 H   0  0
    6.8965   -9.0097   -0.1380 H   0  0
    4.2135   -6.9670   -0.9680 H   0  0
    4.2364   -6.9779    0.7864 H   0  0
    4.9672   -8.4161   -0.1094 H   0  0
    5.5747   -2.3899    0.8180 H   0  0
    5.5528   -2.3779   -0.9781 H   0  0
    1.2105   -1.7819   -0.0221 H   0  0
   -0.9442   -0.5648    0.0103 H   0  0
    3.3310    1.9882   -0.0252 H   0  0
   -0.0084    5.1672   -0.0452 H   0  0
   -0.2126    4.0227   -1.4223 H   0  0
   -2.1517    3.8834    0.1448 H   0  0
   -1.0259    3.4853    1.4949 H   0  0
  1  2  1  0
  2  6  1  0
  2  3  2  0
  3  4  1  0
  4  5  2  0
  4  9  1  0
  5  6  1  0
  5  8  1  0
  6  7  1  0
  9 10  2  0
  9 11  1  0
 11 12  1  0
 12 13  1  0
 13 14  2  0
 13 15  1  0
 15 20  2  0
 15 16  1  0
 16 17  2  0
 17 18  1  0
 18 24  1  0
 18 19  2  0
 19 20  1  0
 19 21  1  0
 21 22  1  0
 22 23  1  0
 23 24  1  0
  1 25  1  0
  1 26  1  0
  1 27  1  0
  3 28  1  0
  7 29  1  0
  7 30  1  0
  7 31  1  0
  8 32  1  0
  8 33  1  0
  8 34  1  0
 11 35  1  0
 11 36  1  0
 16 37  1  0
 17 38  1  0
 20 39  1  0
 22 40  1  0
 22 41  1  0
 23 42  1  0
 23 43  1  0
M  END
> <Name>
ZINC03533137

> <reference>
BDB50018850

> <quality>
0.757

> <status>
decoy

$$$$
ZINC30364781
  SciTegic06061311253D

 44 45  0  0  1  0            999 V2000
   -2.8138   -6.2664    2.7822 C   0  0
   -2.5781   -4.8162    2.3553 C   0  0
   -1.0871   -4.5987    2.0896 C   0  0  2  0  0  0
   -0.3061   -4.7644    3.3953 C   0  0
    1.1888   -4.5795    3.1245 C   0  0
    1.4364   -3.1708    2.5881 C   0  0
    0.5784   -2.9472    1.4165 N   0  0
   -0.8660   -3.1849    1.5430 C   0  0
    1.2279   -2.4436   -0.0212 S   0  0
    0.3267   -2.8546   -1.0401 O   0  0
    2.5939   -2.8350   -0.0090 O   0  0
    1.2088   -0.6817   -0.0127 C   0  0
    2.3996    0.0215   -0.0203 C   0  0
    2.3866    1.4064   -0.0132 C   0  0
    1.1737    2.0888    0.0021 C   0  0
   -0.0167    1.3805    0.0096 C   0  0
    0.0021   -0.0041    0.0020 C   0  0
   -1.1592   -0.6944    0.0094 F   0  0
    1.1572    3.4486    0.0091 O   0  0
   -0.1237    4.0818    0.0243 C   0  0
    3.5576    2.0986   -0.0211 O   0  0
    4.7639    1.3327   -0.0367 C   0  0
   -2.2441   -6.4770    3.6993 H   0  0
   -2.4821   -6.9439    1.9816 H   0  0
   -3.8856   -6.4235    2.9734 H   0  0
   -2.9098   -4.1386    3.1558 H   0  0
   -3.1478   -4.6066    1.4380 H   0  0
   -0.7359   -5.3372    1.3539 H   0  0
   -0.4821   -5.7705    3.8038 H   0  0
   -0.6424   -4.0102    4.1219 H   0  0
    1.7512   -4.7196    4.0594 H   0  0
    1.5222   -5.3183    2.3808 H   0  0
    2.4917   -3.0678    2.2954 H   0  0
    1.1943   -2.4328    3.3670 H   0  0
   -1.3419   -3.0931    0.5555 H   0  0
   -1.3006   -2.4490    2.2355 H   0  0
    3.3574   -0.5193   -0.0320 H   0  0
   -0.9765    1.9177    0.0216 H   0  0
   -0.6447    3.7042    0.9165 H   0  0
   -0.6614    3.7132   -0.8617 H   0  0
   -0.0556    5.1797    0.0292 H   0  0
    4.7113    0.6910   -0.9286 H   0  0
    4.7286    0.6821    0.8495 H   0  0
    5.6668    1.9610   -0.0423 H   0  0
  1  2  1  0
  2  3  1  0
  3  8  1  0
  3  4  1  0
  4  5  1  0
  5  6  1  0
  6  7  1  0
  7  8  1  0
  7  9  1  0
  9 10  2  0
  9 11  2  0
  9 12  1  0
 12 17  2  0
 12 13  1  0
 13 14  2  0
 14 15  1  0
 14 21  1  0
 15 16  2  0
 15 19  1  0
 16 17  1  0
 17 18  1  0
 19 20  1  0
 21 22  1  0
  1 23  1  0
  1 24  1  0
  1 25  1  0
  2 26  1  0
  2 27  1  0
  3 28  1  0
  4 29  1  0
  4 30  1  0
  5 31  1  0
  5 32  1  0
  6 33  1  0
  6 34  1  0
  8 35  1  0
  8 36  1  0
 13 37  1  0
 16 38  1  0
 20 39  1  0
 20 40  1  0
 20 41  1  0
 22 42  1  0
 22 43  1  0
 22 44  1  0
M  END
> <Name>
ZINC30364781

> <reference>
BDB50018850

> <quality>
0.756

> <status>
decoy

$$$$
ZINC26397959
  SciTegic06061311253D

 44 46  0  0  1  0            999 V2000
    8.9666   -1.0948   -0.9455 C   0  0
    8.0986   -0.7546   -2.1295 C   0  0
    8.5780   -0.9392   -3.4132 C   0  0
    7.7840   -0.6280   -4.5016 C   0  0
    6.5092   -0.1321   -4.3088 C   0  0
    6.0257    0.0536   -3.0218 C   0  0
    6.8264   -0.2540   -1.9314 C   0  0
    4.7719    0.5413   -2.8295 O   0  0
    4.3404    0.7067   -1.4772 C   0  0
    2.9147    1.2616   -1.4610 C   0  0
    2.4527    1.4387   -0.0132 C   0  0
    1.0876    1.9700    0.0023 N   0  0
    0.7864    3.2838    0.0122 C   0  0
    1.5644    4.2136    0.0103 O   0  0
   -0.7270    3.3565    0.0270 C   0  0  1  0  0  0
   -1.2106    4.0467    1.2929 C   0  0
   -2.0954    5.2861    1.0301 C   0  0
   -2.7008    4.9408   -0.6792 S   0  0
   -1.2120    4.0276   -1.2771 C   0  0
   -1.1428    1.9438    0.0176 N   0  5
   -0.0144    1.2112    0.0087 C   0  0
    0.0021   -0.0041    0.0020 O   0  0
    8.3097   -0.8305   -5.8994 C   0  0
    8.3784   -1.8143   -0.3569 H   0  0
    9.0266   -0.1664   -0.3586 H   0  0
    9.9582   -1.4851   -1.2184 H   0  0
    9.5927   -1.3343   -3.5689 H   0  0
    5.8780    0.1153   -5.1750 H   0  0
    6.4486   -0.0994   -0.9100 H   0  0
    4.3605   -0.2661   -0.9642 H   0  0
    5.0118    1.4079   -0.9600 H   0  0
    2.8940    2.2347   -1.9735 H   0  0
    2.2415    0.5611   -1.9768 H   0  0
    3.1242    2.1399    0.5039 H   0  0
    2.4728    0.4659    0.4998 H   0  0
   -0.3370    4.3541    1.8865 H   0  0
   -1.7815    3.3244    1.8949 H   0  0
   -2.9441    5.3146    1.7293 H   0  0
   -1.4915    6.2055    1.0347 H   0  0
   -1.5095    3.2715   -2.0186 H   0  0
   -0.4616    4.7393   -1.6519 H   0  0
    8.5950   -1.8918   -5.9467 H   0  0
    9.2379   -0.2419   -5.9440 H   0  0
    7.5957   -0.5510   -6.6881 H   0  0
  1  2  1  0
  2  7  2  0
  2  3  1  0
  3  4  2  0
  4  5  1  0
  4 23  1  0
  5  6  2  0
  6  7  1  0
  6  8  1  0
  8  9  1  0
  9 10  1  0
 10 11  1  0
 11 12  1  0
 12 21  1  0
 12 13  1  0
 13 14  2  0
 13 15  1  0
 15 19  1  0
 15 16  1  0
 15 20  1  0
 16 17  1  0
 17 18  1  0
 18 19  1  0
 20 21  1  0
 21 22  2  0
  1 24  1  0
  1 25  1  0
  1 26  1  0
  3 27  1  0
  5 28  1  0
  7 29  1  0
  9 30  1  0
  9 31  1  0
 10 32  1  0
 10 33  1  0
 11 34  1  0
 11 35  1  0
 16 36  1  0
 16 37  1  0
 17 38  1  0
 17 39  1  0
 19 40  1  0
 19 41  1  0
 23 42  1  0
 23 43  1  0
 23 44  1  0
M  CHG  1  20  -1
M  END
> <Name>
ZINC26397959

> <reference>
BDB50018850

> <quality>
0.751

> <status>
decoy

$$$$
ZINC09466348
  SciTegic06061311253D

 34 36  0  0  0  0            999 V2000
   -8.5940    3.8243   -1.2694 C   0  0
   -7.3453    3.4368   -0.5198 C   0  0
   -6.1575    3.0701   -1.0577 C   0  0
   -5.3381    2.8144    0.0657 C   0  0
   -6.0752    3.0346    1.1159 N   0  0
   -7.1911    3.3865    0.8108 O   0  0
   -3.8986    2.3688    0.0505 C   0  0
   -2.8177    3.8206    0.0474 S   0  0
   -1.2432    3.0297    0.0293 C   0  0
   -0.0702    3.8060    0.0222 C   0  0
    1.1684    3.1546    0.0074 C   0  0
    1.1837    1.7710    0.0003 C   0  0
   -0.0126    1.0758    0.0080 C   0  0
   -1.1701    1.7070    0.0169 N   0  0
   -0.1442    5.2775    0.0299 C   0  0
   -1.2266    5.8319    0.0428 O   0  0
    0.9877    6.0092    0.0225 N   0  0
    0.9180    7.3964    0.0297 C   0  0
   -0.1485    8.1725    0.0377 N   0  0
   -0.0370    9.4864    0.0472 C   0  0
    1.2049   10.0295    0.0382 C   0  0
    2.2124    8.5539    0.0228 S   0  0
   -8.8251    4.8131   -0.8464 H   0  0
   -9.3432    3.1369   -0.8497 H   0  0
   -8.5335    3.8078   -2.3676 H   0  0
   -5.8919    2.9898   -2.1221 H   0  0
   -3.6931    1.7614    0.9443 H   0  0
   -3.7086    1.7693   -0.8520 H   0  0
    2.1068    3.7285    0.0016 H   0  0
    2.1401    1.2277   -0.0114 H   0  0
    0.0023   -0.0241    0.0067 H   0  0
    1.9044    5.5397    0.0115 H   0  0
   -0.9312   10.1269    0.0621 H   0  0
    1.5086   11.0867    0.0399 H   0  0
  1  2  1  0
  2  6  1  0
  2  3  2  0
  3  4  1  0
  4  5  2  0
  4  7  1  0
  5  6  1  0
  7  8  1  0
  8  9  1  0
  9 14  2  0
  9 10  1  0
 10 11  2  0
 10 15  1  0
 11 12  1  0
 12 13  2  0
 13 14  1  0
 15 16  2  0
 15 17  1  0
 17 18  1  0
 18 22  1  0
 18 19  2  0
 19 20  1  0
 20 21  2  0
 21 22  1  0
  1 23  1  0
  1 24  1  0
  1 25  1  0
  3 26  1  0
  7 27  1  0
  7 28  1  0
 11 29  1  0
 12 30  1  0
 13 31  1  0
 17 32  1  0
 20 33  1  0
 21 34  1  0
M  END
> <Name>
ZINC09466348

> <reference>
BDB50018850

> <quality>
0.746

> <status>
decoy

$$$$
ZINC22764769
  SciTegic06061311253D

 45 47  0  0  1  0            999 V2000
    3.4629    2.2866   -1.0959 C   0  0
    2.0690    1.6598   -1.1666 C   0  0  1  0  0  0
    2.1967    0.1337   -1.2354 C   0  0
    0.8516   -0.4506   -1.1135 N   0  0
    0.0021   -0.0041    0.0020 C   0  0
   -0.0187    1.5287    0.0104 C   0  0
    1.3246    2.0177    0.0002 O   0  0
    0.4106   -1.3672   -1.9976 C   0  0
    1.1258   -1.7225   -2.9104 O   0  0
   -0.9712   -1.9508   -1.8520 C   0  0
   -1.2657   -3.1431   -3.1816 S   0  0
   -2.9032   -3.6532   -2.7779 C   0  0
   -3.6593   -4.5665   -3.4551 N   0  0
   -4.8467   -4.6376   -2.7803 C   0  0
   -4.7752   -3.8050   -1.7807 N   0  0
   -3.6272   -3.2271   -1.7690 N   0  5
   -6.0205   -5.5163   -3.1285 C   0  0
   -6.3880   -6.3791   -1.9197 C   0  0  2  0  0  0
   -5.2599   -7.3907   -1.6300 C   0  0
   -6.0063   -8.6733   -1.1837 C   0  0
   -7.2472   -8.6876   -2.1105 C   0  0
   -7.6512   -7.2031   -2.2247 C   0  0
    3.9861    1.9188   -0.2009 H   0  0
    3.3710    3.3814   -1.0419 H   0  0
    4.0358    2.0113   -1.9937 H   0  0
    1.5494    2.0279   -2.0635 H   0  0
    2.6392   -0.1567   -2.1997 H   0  0
    2.8298   -0.2225   -0.4094 H   0  0
   -1.0203   -0.3858   -0.1361 H   0  0
    0.4151   -0.3721    0.9528 H   0  0
   -0.5318    1.8851    0.9158 H   0  0
   -0.5488    1.8938   -0.8816 H   0  0
   -1.0544   -2.4587   -0.8798 H   0  0
   -1.7185   -1.1458   -1.9104 H   0  0
   -5.7548   -6.1666   -3.9750 H   0  0
   -6.8800   -4.8878   -3.4046 H   0  0
   -6.5491   -5.7079   -1.0632 H   0  0
   -4.6202   -7.0228   -0.8143 H   0  0
   -4.6838   -7.5882   -2.5460 H   0  0
   -5.3832   -9.5608   -1.3682 H   0  0
   -6.3177   -8.5880   -0.1322 H   0  0
   -8.0602   -9.2659   -1.6472 H   0  0
   -6.9756   -9.0827   -3.1005 H   0  0
   -8.0003   -6.9894   -3.2457 H   0  0
   -8.4347   -6.9722   -1.4880 H   0  0
  1  2  1  0
  2  7  1  0
  2  3  1  0
  3  4  1  0
  4  5  1  0
  4  8  1  0
  5  6  1  0
  6  7  1  0
  8  9  2  0
  8 10  1  0
 10 11  1  0
 11 12  1  0
 12 13  2  0
 12 16  1  0
 13 14  1  0
 14 17  1  0
 14 15  2  0
 15 16  1  0
 17 18  1  0
 18 22  1  0
 18 19  1  0
 19 20  1  0
 20 21  1  0
 21 22  1  0
  1 23  1  0
  1 24  1  0
  1 25  1  0
  2 26  1  0
  3 27  1  0
  3 28  1  0
  5 29  1  0
  5 30  1  0
  6 31  1  0
  6 32  1  0
 10 33  1  0
 10 34  1  0
 17 35  1  0
 17 36  1  0
 18 37  1  0
 19 38  1  0
 19 39  1  0
 20 40  1  0
 20 41  1  0
 21 42  1  0
 21 43  1  0
 22 44  1  0
 22 45  1  0
M  CHG  1  16  -1
M  END
> <Name>
ZINC22764769

> <reference>
BDB50018850

> <quality>
0.745

> <status>
decoy

$$$$
ZINC21930086
  SciTegic06061311253D

 51 53  0  0  0  0            999 V2000
   -6.3920   -4.8843   -2.3409 C   0  0
   -6.2174   -4.1345   -1.0187 C   0  0
   -4.9349   -3.4182   -1.0276 N   0  3
   -4.8359   -2.5012    0.1165 C   0  0
   -3.5238   -1.7184    0.0274 C   0  0
   -2.3951   -2.6594    0.0111 N   0  0
   -2.4941   -3.5763   -1.1330 C   0  0
   -3.8062   -4.3592   -1.0439 C   0  0
   -1.1896   -1.9860    0.0028 C   0  0
    0.0301   -2.6920   -0.0127 C   0  0
    0.3838   -4.0588   -0.0227 C   0  0
    1.6831   -4.1487   -0.0351 N   0  0
    2.2448   -2.8657   -0.0340 N   0  0
    1.2302   -1.9555   -0.0202 C   0  0
    1.1691   -0.6246   -0.0178 N   0  0
    0.0021   -0.0041    0.0020 C   0  0
   -1.1532   -0.6593    0.0095 N   0  0
   -0.0167    1.3796    0.0096 N   0  0
    1.2419    2.1293    0.0016 C   0  0
    1.6663    2.3981   -1.4436 C   0  0
   -1.2952    2.0948    0.0196 C   0  0
   -1.7335    2.3359    1.4655 C   0  0
    3.6765   -2.5553   -0.0453 C   0  0
   -5.5709   -5.6055   -2.4658 H   0  0
   -6.3792   -4.1670   -3.1748 H   0  0
   -7.3522   -5.4209   -2.3349 H   0  0
   -7.0387   -3.4133   -0.8948 H   0  0
   -6.2302   -4.8517   -0.1847 H   0  0
   -4.8929   -2.8564   -1.8899 H   0  0
   -5.6830   -1.7996    0.0990 H   0  0
   -4.8554   -3.0778    1.0531 H   0  0
   -3.4328   -1.0524    0.8981 H   0  0
   -3.5153   -1.1200   -0.8956 H   0  0
   -1.6472   -4.2781   -1.1167 H   0  0
   -2.4749   -2.9988   -2.0690 H   0  0
   -3.8949   -5.0254   -1.9147 H   0  0
   -3.8138   -4.9576   -0.1210 H   0  0
   -0.3192   -4.9048   -0.0204 H   0  0
    1.1023    3.0860    0.5262 H   0  0
    2.0223    1.5433    0.5091 H   0  0
    0.8875    2.9851   -1.9524 H   0  0
    1.8064    1.4422   -1.9695 H   0  0
    2.6113    2.9610   -1.4503 H   0  0
   -1.1792    3.0608   -0.4937 H   0  0
   -2.0570    1.4936   -0.4982 H   0  0
   -0.9733    2.9380    1.9846 H   0  0
   -1.8501    1.3707    1.9802 H   0  0
   -2.6935    2.8729    1.4737 H   0  0
    4.0319   -3.1075   -0.9278 H   0  0
    4.0475   -3.1158    0.8254 H   0  0
    3.9528   -1.4906   -0.0427 H   0  0
  1  2  1  0
  2  3  1  0
  3  8  1  0
  3  4  1  0
  4  5  1  0
  5  6  1  0
  6  7  1  0
  6  9  1  0
  7  8  1  0
  9 17  1  0
  9 10  2  0
 10 14  1  0
 10 11  1  0
 11 12  2  0
 12 13  1  0
 13 14  1  0
 13 23  1  0
 14 15  2  0
 15 16  1  0
 16 17  2  0
 16 18  1  0
 18 19  1  0
 18 21  1  0
 19 20  1  0
 21 22  1  0
  1 24  1  0
  1 25  1  0
  1 26  1  0
  2 27  1  0
  2 28  1  0
  3 29  1  0
  4 30  1  0
  4 31  1  0
  5 32  1  0
  5 33  1  0
  7 34  1  0
  7 35  1  0
  8 36  1  0
  8 37  1  0
 11 38  1  0
 19 39  1  0
 19 40  1  0
 20 41  1  0
 20 42  1  0
 20 43  1  0
 21 44  1  0
 21 45  1  0
 22 46  1  0
 22 47  1  0
 22 48  1  0
 23 49  1  0
 23 50  1  0
 23 51  1  0
M  CHG  1   3   1
M  END
> <Name>
ZINC21930086

> <reference>
BDB50018850

> <quality>
0.744

> <status>
decoy

$$$$
ZINC03410236
  SciTegic06061311253D

 30 31  0  0  0  0            999 V2000
   -4.7523   -1.0279   -2.8901 C   0  0
   -5.5965   -1.7673   -3.6933 C   0  0
   -6.5419   -2.6028   -3.1236 C   0  0
   -6.6419   -2.7049   -1.7467 C   0  0
   -5.7989   -1.9731   -0.9353 C   0  0
   -4.8460   -1.1310   -1.5040 C   0  0
   -3.9371   -0.3412   -0.6355 C   0  0
   -3.9158   -0.3346    0.7048 N   0  0
   -2.9847    0.4804    1.0689 N   0  0
   -2.4300    0.9773    0.0189 N   0  0
   -2.9984    0.4948   -1.0323 N   0  0
   -1.3296    1.9443    0.0189 C   0  0
   -0.0144    1.2086    0.0087 C   0  0
    0.0021   -0.0041    0.0020 O   0  0
    1.1435    1.8983    0.0013 N   0  0
    2.4220    1.1832   -0.0147 C   0  0
    3.5713    2.1931   -0.0203 C   0  0  1  0  0  0
    3.4972    2.9902    1.1271 F   0  0
    4.7922    1.5102   -0.0356 F   0  0
    3.4754    3.0025   -1.1573 F   0  0
   -7.6050   -3.5259   -4.1392 Cl  0  0
   -4.0067   -0.3583   -3.3436 H   0  0
   -5.5180   -1.6926   -4.7880 H   0  0
   -7.3945   -3.3704   -1.2986 H   0  0
   -5.8793   -2.0546    0.1587 H   0  0
   -1.3911    2.5714    0.9205 H   0  0
   -1.4002    2.5804   -0.8758 H   0  0
    1.1295    2.9282    0.0069 H   0  0
    2.4815    0.5562   -0.9166 H   0  0
    2.4978    0.5473    0.8796 H   0  0
  1  6  2  0
  1  2  1  0
  2  3  2  0
  3  4  1  0
  3 21  1  0
  4  5  2  0
  5  6  1  0
  6  7  1  0
  7 11  2  0
  7  8  1  0
  8  9  2  0
  9 10  1  0
 10 11  1  0
 10 12  1  0
 12 13  1  0
 13 14  2  0
 13 15  1  0
 15 16  1  0
 16 17  1  0
 17 18  1  0
 17 19  1  0
 17 20  1  0
  1 22  1  0
  2 23  1  0
  4 24  1  0
  5 25  1  0
 12 26  1  0
 12 27  1  0
 15 28  1  0
 16 29  1  0
 16 30  1  0
M  END
> <Name>
ZINC03410236

> <reference>
BDB50018850

> <quality>
0.741

> <status>
decoy

$$$$
ZINC22712636
  SciTegic06061311253D

 38 40  0  0  0  0            999 V2000
   -0.0512    5.3713    0.0320 C   0  0
   -0.0508    3.8643    0.0234 C   0  0
    1.1479    3.1697    0.0077 C   0  0
    1.1589    1.7764    0.0005 C   0  0
   -0.0126    1.0758    0.0080 C   0  0
   -1.2325    1.7611    0.0175 C   0  0
   -1.2499    3.1686    0.0316 C   0  0
   -2.4293    3.8260    0.0464 O   0  0
   -3.5988    3.1671    0.0354 C   0  0
   -4.6378    3.8025    0.0438 O   0  0
   -3.6552    1.7582    0.0279 C   0  0
   -2.5047    1.0359    0.0190 C   0  0
   -2.5368   -0.4707    0.0104 C   0  0
   -2.5420   -1.0838    1.7133 S   0  0
   -2.5803   -2.8197    1.4135 C   0  0
   -2.5978   -3.4090    0.2405 N   0  0
   -2.6244   -4.6849    0.3933 N   0  0
   -2.6255   -4.9836    1.6615 C   0  0
   -2.5914   -3.8065    2.3570 N   0  0
   -2.5741   -3.6391    3.8123 C   0  0
   -3.9808   -3.4299    4.3107 C   0  0
   -4.4681   -4.2099    5.2436 C   0  0
    2.3214    3.8521   -0.0003 O   0  0
   -0.6300    5.6509    0.9247 H   0  0
   -0.6479    5.6610   -0.8455 H   0  0
    0.9541    5.8178    0.0243 H   0  0
    2.1178    1.2376   -0.0113 H   0  0
    0.0023   -0.0241    0.0066 H   0  0
   -4.6283    1.2453    0.0293 H   0  0
   -3.4451   -0.8153   -0.5055 H   0  0
   -1.6492   -0.8545   -0.5139 H   0  0
   -2.6494   -5.9952    2.0929 H   0  0
   -1.9592   -2.7656    4.0747 H   0  0
   -2.1501   -4.5399    4.2801 H   0  0
   -4.5985   -2.6222    3.8911 H   0  0
   -3.8504   -5.0176    5.6632 H   0  0
   -5.4949   -4.0572    5.6074 H   0  0
    2.2857    4.4342    0.7997 H   0  0
  1  2  1  0
  2  7  2  0
  2  3  1  0
  3  4  2  0
  3 23  1  0
  4  5  1  0
  5  6  2  0
  6 12  1  0
  6  7  1  0
  7  8  1  0
  8  9  1  0
  9 10  2  0
  9 11  1  0
 11 12  2  0
 12 13  1  0
 13 14  1  0
 14 15  1  0
 15 19  1  0
 15 16  2  0
 16 17  1  0
 17 18  2  0
 18 19  1  0
 19 20  1  0
 20 21  1  0
 21 22  2  0
  1 24  1  0
  1 25  1  0
  1 26  1  0
  4 27  1  0
  5 28  1  0
 11 29  1  0
 13 30  1  0
 13 31  1  0
 18 32  1  0
 20 33  1  0
 20 34  1  0
 21 35  1  0
 22 36  1  0
 22 37  1  0
 23 38  1  0
M  END
> <Name>
ZINC22712636

> <reference>
BDB50018850

> <quality>
0.741

> <status>
decoy

$$$$
ZINC25358740
  SciTegic06061311253D

 35 37  0  0  0  0            999 V2000
   -2.8928   -0.1311    0.0023 C   0  0
   -2.5804    1.3431    0.0159 C   0  0
   -1.3028    1.9314    0.0187 C   0  0
   -1.4599    3.2430    0.0261 N   0  0
   -2.7161    3.5233    0.0330 N   0  0
   -3.4473    2.3282    0.0300 N   0  0
   -3.2632    4.8135    0.0424 C   0  0
   -4.6414    4.9847    0.0439 C   0  0
   -5.1782    6.2571    0.0576 C   0  0
   -4.3451    7.3608    0.0600 C   0  0
   -2.9714    7.1941    0.0533 C   0  0
   -2.4285    5.9227    0.0445 C   0  0
   -1.9291    8.5824    0.0552 Cl  0  0
   -0.0144    1.2106    0.0087 C   0  0
    0.0021   -0.0041    0.0020 O   0  0
    1.1430    1.9001    0.0013 O   0  0
    2.3713    1.1259   -0.0145 C   0  0
    3.5538    2.0601   -0.0208 C   0  0
    4.1734    2.5427    1.0293 N   0  0
    5.1571    3.3206    0.5435 C   0  0
    5.0823    3.2782   -0.7531 N   0  0
    4.1678    2.5596   -1.0976 O   0  0
    6.1588    4.1021    1.3540 C   0  0
   -3.5511   -0.2268   -0.8737 H   0  0
   -3.5430   -0.2447    0.8823 H   0  0
   -2.0297   -0.8129   -0.0087 H   0  0
   -5.3050    4.1075    0.0342 H   0  0
   -6.2698    6.3927    0.0666 H   0  0
   -4.7752    8.3732    0.0672 H   0  0
   -1.3365    5.7902    0.0392 H   0  0
    2.4140    0.4873    0.8802 H   0  0
    2.3976    0.4962   -0.9161 H   0  0
    6.6008    3.3277    1.9982 H   0  0
    5.5154    4.7074    2.0094 H   0  0
    6.8969    4.6874    0.7861 H   0  0
  1  2  1  0
  2  6  2  0
  2  3  1  0
  3  4  2  0
  3 14  1  0
  4  5  1  0
  5  6  1  0
  5  7  1  0
  7 12  2  0
  7  8  1  0
  8  9  2  0
  9 10  1  0
 10 11  2  0
 11 12  1  0
 11 13  1  0
 14 15  2  0
 14 16  1  0
 16 17  1  0
 17 18  1  0
 18 22  1  0
 18 19  2  0
 19 20  1  0
 20 21  2  0
 20 23  1  0
 21 22  1  0
  1 24  1  0
  1 25  1  0
  1 26  1  0
  8 27  1  0
  9 28  1  0
 10 29  1  0
 12 30  1  0
 17 31  1  0
 17 32  1  0
 23 33  1  0
 23 34  1  0
 23 35  1  0
M  END
> <Name>
ZINC25358740

> <reference>
BDB50018850

> <quality>
0.741

> <status>
decoy

$$$$
ZINC28775152
  SciTegic06061311253D

 41 43  0  0  0  0            999 V2000
    9.7840    8.7105    3.3745 C   0  0
    8.8725    8.8917    2.1882 C   0  0
    9.2809    9.6717    1.0972 C   0  0
    8.4618    9.8340    0.0340 C   0  0
    7.2346    9.2444    0.0042 N   0  0
    6.8083    8.4777    1.0527 C   0  0
    7.6460    8.2980    2.1687 C   0  0
    5.6077    7.9015    1.0333 N   0  0
    4.7928    8.0425   -0.0005 C   0  0
    5.1764    8.8076   -1.0845 C   0  0
    6.4348    9.4203   -1.0693 C   0  0
    6.8034   10.1032   -2.0118 O   0  0
    3.4429    7.3726    0.0083 C   0  0
    3.6150    5.9541   -0.0004 O   0  0
    2.4003    5.2265    0.0068 N   0  0
    2.4210    3.9326    0.0001 C   0  0
    1.1558    3.1748    0.0076 C   0  0
    1.1737    1.7785    0.0004 C   0  0
   -0.0126    1.0758    0.0080 C   0  0
   -1.2227    1.7488    0.0173 C   0  0
   -1.2539    3.1299    0.0299 C   0  0
   -0.0707    3.8518    0.0225 C   0  0
   -0.1002    5.2091    0.0301 O   0  0
   -1.3872    5.8300    0.0452 C   0  0
    9.9047    7.6220    3.4775 H   0  0
    9.1984    9.0560    4.2392 H   0  0
   10.7466    9.2344    3.2807 H   0  0
   10.2701   10.1528    1.1063 H   0  0
    8.7903   10.4493   -0.8166 H   0  0
    7.3137    7.6834    3.0184 H   0  0
    4.5039    8.9334   -1.9458 H   0  0
    2.8922    7.6691    0.9132 H   0  0
    2.8751    7.6778   -0.8830 H   0  0
    3.3823    3.3980   -0.0112 H   0  0
    2.1328    1.2400   -0.0113 H   0  0
    0.0024   -0.0241    0.0067 H   0  0
   -2.1645    1.1805    0.0146 H   0  0
   -2.2191    3.6574    0.0458 H   0  0
   -1.9049    5.4471    0.9371 H   0  0
   -1.9211    5.4567   -0.8411 H   0  0
   -1.3295    6.9285    0.0506 H   0  0
  1  2  1  0
  2  7  2  0
  2  3  1  0
  3  4  2  0
  4  5  1  0
  5 11  1  0
  5  6  1  0
  6  7  1  0
  6  8  2  0
  8  9  1  0
  9 10  2  0
  9 13  1  0
 10 11  1  0
 11 12  2  0
 13 14  1  0
 14 15  1  0
 15 16  2  0
 16 17  1  0
 17 22  2  0
 17 18  1  0
 18 19  2  0
 19 20  1  0
 20 21  2  0
 21 22  1  0
 22 23  1  0
 23 24  1  0
  1 25  1  0
  1 26  1  0
  1 27  1  0
  3 28  1  0
  4 29  1  0
  7 30  1  0
 10 31  1  0
 13 32  1  0
 13 33  1  0
 16 34  1  0
 18 35  1  0
 19 36  1  0
 20 37  1  0
 21 38  1  0
 24 39  1  0
 24 40  1  0
 24 41  1  0
M  END
> <Name>
ZINC28775152

> <reference>
BDB50018850

> <quality>
0.741

> <status>
decoy

$$$$
ZINC26695620
  SciTegic06061311253D

 37 39  0  0  1  0            999 V2000
    7.3346    0.8527    0.8499 C   0  0
    6.4953    0.9005   -0.4009 C   0  0
    5.1199    1.0950   -0.3040 C   0  0
    4.3657    1.1357   -1.4608 C   0  0
    4.9967    0.9781   -2.6610 N   0  0
    6.3501    0.7948   -2.7068 C   0  0
    7.0673    0.7577   -1.5780 N   0  0
    6.6868    0.6787   -3.9868 N   0  0
    5.6019    0.7719   -4.7459 C   0  0
    4.5493    0.9612   -3.9882 N   0  0
    5.5847    0.6859   -6.2503 C   0  0  1  0  0  0
    6.0910    1.8728   -6.7911 F   0  0
    6.3764   -0.3904   -6.6650 F   0  0
    4.2708    0.4956   -6.6916 F   0  0
    3.0028    1.3258   -1.4040 N   0  0
    2.2905    0.2366   -2.0854 C   0  0
    2.5481    1.4636   -0.0140 C   0  0
    1.1092    1.9113    0.0017 C   0  0
   -0.0126    1.0758    0.0080 C   0  0
   -1.0827    1.8285    0.0165 N   0  0
   -0.6751    3.1687    0.0255 N   0  0
    0.6741    3.1925    0.0128 C   0  0
   -1.5577    4.3379    0.0402 C   0  0
    8.0947    1.6371    0.7196 H   0  0
    7.8528   -0.1169    0.8149 H   0  0
    6.7529    0.9831    1.7744 H   0  0
    4.6410    1.2145    0.6790 H   0  0
    2.5482   -0.7160   -1.5995 H   0  0
    2.6124    0.2037   -3.1367 H   0  0
    1.2044    0.4023   -2.0316 H   0  0
    2.6355    0.4941    0.4984 H   0  0
    3.1690    2.2094    0.5039 H   0  0
    0.0023   -0.0241    0.0061 H   0  0
    1.3068    4.0923    0.0117 H   0  0
   -2.1910    4.1443    0.9185 H   0  0
   -2.2007    4.1590   -0.8342 H   0  0
   -1.0738    5.3257    0.0458 H   0  0
  1  2  1  0
  2  7  2  0
  2  3  1  0
  3  4  2  0
  4  5  1  0
  4 15  1  0
  5 10  1  0
  5  6  1  0
  6  7  1  0
  6  8  2  0
  8  9  1  0
  9 10  2  0
  9 11  1  0
 11 12  1  0
 11 13  1  0
 11 14  1  0
 15 16  1  0
 15 17  1  0
 17 18  1  0
 18 22  2  0
 18 19  1  0
 19 20  2  0
 20 21  1  0
 21 22  1  0
 21 23  1  0
  1 24  1  0
  1 25  1  0
  1 26  1  0
  3 27  1  0
 16 28  1  0
 16 29  1  0
 16 30  1  0
 17 31  1  0
 17 32  1  0
 19 33  1  0
 22 34  1  0
 23 35  1  0
 23 36  1  0
 23 37  1  0
M  END
> <Name>
ZINC26695620

> <reference>
BDB50018850

> <quality>
0.738

> <status>
decoy

$$$$
ZINC05580577
  SciTegic06061311253D

 40 42  0  0  0  0            999 V2000
   -0.0588   -3.0470    6.9528 C   0  0
    0.3129   -1.7930    6.2042 C   0  0
   -0.2868   -1.5123    4.9956 C   0  0
    0.0608   -0.3504    4.3078 C   0  0
    1.0160    0.5278    4.8441 C   0  0
    1.6087    0.2262    6.0641 C   0  0
    1.2565   -0.9262    6.7347 C   0  0
    1.9036   -1.2467    8.0574 C   0  0
    1.3505    1.6512    4.1756 O   0  0
    0.7989    1.9759    2.9930 C   0  0
   -0.1481    1.1816    2.3812 C   0  0
   -0.5634   -0.0131    3.0137 C   0  0
   -1.4029   -0.7400    2.5064 O   0  0
   -0.6816    1.5467    1.1837 O   0  0
   -0.0127    1.0858    0.0080 C   0  0
   -0.7416    1.5850   -1.2129 C   0  0
   -1.7322    2.2656   -1.0889 O   0  0
   -0.2903    1.2736   -2.4381 O   0  0
   -1.0423    1.7888   -3.5682 C   0  0
    1.2183    3.2142    2.3323 C   0  0
    2.1407    4.1044    2.8057 C   0  0
    2.2297    5.1367    1.8569 C   0  0
    1.3698    4.8356    0.8601 C   0  0
    0.7660    3.6727    1.1473 O   0  0
   -0.3945   -2.7017    7.9418 H   0  0
    0.8895   -3.5845    7.1004 H   0  0
   -0.8154   -3.6613    6.4427 H   0  0
   -1.0352   -2.2007    4.5761 H   0  0
    2.3584    0.9062    6.4948 H   0  0
    2.3544   -2.2412    7.9243 H   0  0
    1.0701   -1.3585    8.7665 H   0  0
    2.6360   -0.4946    8.3860 H   0  0
    0.0026   -0.0141    0.0008 H   0  0
    1.0191    1.4670   -0.0002 H   0  0
   -1.0637    2.8826   -3.4536 H   0  0
   -2.0708    1.4164   -3.4519 H   0  0
   -0.6106    1.4912   -4.5352 H   0  0
    2.7043    4.0276    3.7472 H   0  0
    2.8779    6.0235    1.9150 H   0  0
    1.1935    5.4438   -0.0393 H   0  0
  1  2  1  0
  2  7  2  0
  2  3  1  0
  3  4  2  0
  4 12  1  0
  4  5  1  0
  5  6  2  0
  5  9  1  0
  6  7  1  0
  7  8  1  0
  9 10  1  0
 10 11  2  0
 10 20  1  0
 11 12  1  0
 11 14  1  0
 12 13  2  0
 14 15  1  0
 15 16  1  0
 16 17  2  0
 16 18  1  0
 18 19  1  0
 20 24  1  0
 20 21  2  0
 21 22  1  0
 22 23  2  0
 23 24  1  0
  1 25  1  0
  1 26  1  0
  1 27  1  0
  3 28  1  0
  6 29  1  0
  8 30  1  0
  8 31  1  0
  8 32  1  0
 15 33  1  0
 15 34  1  0
 19 35  1  0
 19 36  1  0
 19 37  1  0
 21 38  1  0
 22 39  1  0
 23 40  1  0
M  END
> <Name>
ZINC05580577

> <reference>
BDB50018850

> <quality>
0.735

> <status>
decoy

$$$$
ZINC00148880
  SciTegic06061311253D

 39 41  0  0  0  0            999 V2000
    5.9978   -0.7544   -0.0602 C   0  0
    4.7732    0.1625   -0.0431 C   0  0
    3.5844   -0.6305   -0.0360 O   0  0
    2.3991    0.0345   -0.0207 C   0  0
    1.2066   -0.6758   -0.0131 C   0  0
    0.0021   -0.0041    0.0020 C   0  0
   -0.0168    1.3900    0.0097 C   0  0
    1.1828    2.1004    0.0020 C   0  0
    2.3839    1.4225   -0.0131 C   0  0
   -1.3098    2.1155    0.0197 C   0  0
   -2.2804    1.8082   -0.8740 C   0  0
   -3.5992    2.9313   -0.4534 S   0  0
   -2.8208    3.7853    0.8930 C   0  0
   -1.5584    3.1769    0.9877 C   0  0
   -0.7013    3.6842    2.0158 C   0  0
    0.4142    3.2197    2.1767 O   0  0
   -1.1459    4.6817    2.8024 N   0  0
   -2.3853    5.2111    2.6376 C   0  0
   -3.1901    4.7694    1.7086 N   0  0
   -0.2752    5.2069    3.8571 C   0  0
    0.5514    6.3409    3.3077 C   0  0
    0.4262    6.6757    2.1542 O   0  0
    1.5344    7.0569    4.1977 C   0  0
    5.9728   -1.3845   -0.9615 H   0  0
    5.9903   -1.3946    0.8343 H   0  0
    6.9133   -0.1446   -0.0657 H   0  0
    4.7988    0.7919    0.8586 H   0  0
    4.7806    0.8028   -0.9375 H   0  0
    1.2222   -1.7757   -0.0191 H   0  0
   -0.9426   -0.5676    0.0080 H   0  0
    1.1714    3.2003    0.0080 H   0  0
    3.3307    1.9824   -0.0191 H   0  0
   -2.2597    1.0479   -1.6687 H   0  0
   -2.7173    6.0259    3.2978 H   0  0
    0.3912    4.4085    4.2154 H   0  0
   -0.8904    5.5733    4.6921 H   0  0
    2.1956    6.2652    4.5798 H   0  0
    0.9355    7.4113    5.0496 H   0  0
    2.0873    7.8682    3.7015 H   0  0
  1  2  1  0
  2  3  1  0
  3  4  1  0
  4  9  2  0
  4  5  1  0
  5  6  2  0
  6  7  1  0
  7  8  2  0
  7 10  1  0
  8  9  1  0
 10 14  1  0
 10 11  2  0
 11 12  1  0
 12 13  1  0
 13 19  1  0
 13 14  2  0
 14 15  1  0
 15 16  2  0
 15 17  1  0
 17 18  1  0
 17 20  1  0
 18 19  2  0
 20 21  1  0
 21 22  2  0
 21 23  1  0
  1 24  1  0
  1 25  1  0
  1 26  1  0
  2 27  1  0
  2 28  1  0
  5 29  1  0
  6 30  1  0
  8 31  1  0
  9 32  1  0
 11 33  1  0
 18 34  1  0
 20 35  1  0
 20 36  1  0
 23 37  1  0
 23 38  1  0
 23 39  1  0
M  END
> <Name>
ZINC00148880

> <reference>
BDB50018850

> <quality>
0.734

> <status>
decoy

$$$$
ZINC17420205
  SciTegic06061311253D

 47 49  0  0  0  0            999 V2000
    0.9617    0.2166   -7.5600 C   0  0
   -0.2752    0.9572   -7.2995 N   0  0
   -1.1722    1.4272   -8.2471 C   0  0
   -2.1873    2.0634   -7.5415 C   0  0
   -1.8952    1.9617   -6.2432 N   0  0
   -0.7614    1.3130   -6.0890 C   0  0
   -0.1751    1.0390   -4.9023 O   0  0
   -0.8440    1.4999   -3.7266 C   0  0
   -0.0366    1.0992   -2.4903 C   0  0
   -0.7527    1.5927   -1.2315 C   0  0  1  0  0  0
   -0.0127    1.0858    0.0080 C   0  0
   -0.7288    1.5792    1.2668 C   0  0
   -0.7496    3.1091    1.2752 C   0  0
   -1.4896    3.6159    0.0357 C   0  0
   -0.7734    3.1225   -1.2231 C   0  0
   -3.2338    2.6353   -8.2464 N   0  0
   -3.2564    2.5703   -9.5911 C   0  0
   -4.1824    3.0780  -10.1939 O   0  0
   -2.2808    1.9575  -10.2836 N   0  0
   -1.2360    1.3830   -9.6521 C   0  0
   -0.3578    0.8310  -10.2914 O   0  0
   -2.3524    1.9138  -11.7462 C   0  0
   -4.3167    3.3119   -7.5282 C   0  0
    0.8279   -0.6870   -6.9471 H   0  0
    1.7140    0.8239   -7.0353 H   0  0
    1.2051    0.0124   -8.6131 H   0  0
   -0.9377    2.5953   -3.7635 H   0  0
   -1.8453    1.0478   -3.6720 H   0  0
    0.0571    0.0038   -2.4526 H   0  0
    0.9648    1.5513   -2.5426 H   0  0
   -1.7847    1.2120   -1.2237 H   0  0
    0.0018   -0.0141    0.0023 H   0  0
    1.0194    1.4662    0.0013 H   0  0
   -0.1974    1.2156    2.1586 H   0  0
   -1.7610    1.1990    1.2745 H   0  0
   -1.2650    3.4640    2.1799 H   0  0
    0.2819    3.4910    1.2671 H   0  0
   -1.5050    4.7158    0.0406 H   0  0
   -2.5214    3.2347    0.0431 H   0  0
   -1.3054    3.4880   -2.1138 H   0  0
    0.2585    3.5034   -1.2303 H   0  0
   -2.4211    2.9642  -12.0654 H   0  0
   -3.3168    1.4371  -11.9759 H   0  0
   -1.5060    1.3899  -12.2144 H   0  0
   -3.8188    4.0828   -6.9218 H   0  0
   -4.7126    2.5574   -6.8324 H   0  0
   -5.0956    3.7300   -8.1828 H   0  0
  1  2  1  0
  2  6  1  0
  2  3  1  0
  3 20  1  0
  3  4  2  0
  4  5  1  0
  4 16  1  0
  5  6  2  0
  6  7  1  0
  7  8  1  0
  8  9  1  0
  9 10  1  0
 10 15  1  0
 10 11  1  0
 11 12  1  0
 12 13  1  0
 13 14  1  0
 14 15  1  0
 16 17  1  0
 16 23  1  0
 17 18  2  0
 17 19  1  0
 19 20  1  0
 19 22  1  0
 20 21  2  0
  1 24  1  0
  1 25  1  0
  1 26  1  0
  8 27  1  0
  8 28  1  0
  9 29  1  0
  9 30  1  0
 10 31  1  0
 11 32  1  0
 11 33  1  0
 12 34  1  0
 12 35  1  0
 13 36  1  0
 13 37  1  0
 14 38  1  0
 14 39  1  0
 15 40  1  0
 15 41  1  0
 22 42  1  0
 22 43  1  0
 22 44  1  0
 23 45  1  0
 23 46  1  0
 23 47  1  0
M  END
> <Name>
ZINC17420205

> <reference>
BDB50018850

> <quality>
0.733

> <status>
decoy

$$$$
ZINC07347192
  SciTegic06061311253D

 36 38  0  0  0  0            999 V2000
   -0.0127    1.0858    0.0080 C   0  0
   -0.7288    1.5792    1.2668 C   0  0
    0.0000    1.0800    2.4877 C   0  0
    0.9813    1.6321    3.1733 N   0  0
    1.4882    1.0772    4.1861 N   0  0
    1.0634   -0.0999    4.6247 C   0  0
   -0.2252   -0.4285    3.4255 S   0  0
    1.4912   -0.8579    5.7077 N   0  5
    2.4896   -0.4075    6.4930 C   0  0
    3.0163    0.6628    6.2536 O   0  0
    2.9420   -1.2090    7.6382 C   0  0
    3.9356   -0.8570    8.4951 C   0  0
    4.0376   -1.9457    9.4661 C   0  0
    4.8476   -2.1854   10.5788 C   0  0
    4.6865   -3.3354   11.2986 C   0  0
    3.7239   -4.2661   10.9313 C   0  0
    2.9150   -4.0486    9.8371 C   0  0
    3.0603   -2.8857    9.0893 C   0  0
    2.4294   -2.4034    8.0010 O   0  0
    4.7642    0.4011    8.4540 C   0  0
    4.1259    1.4174    9.2297 O   0  0
    4.8338    2.6585    9.2569 C   0  0
    0.0025   -0.0141    0.0009 H   0  0
    1.0194    1.4662   -0.0009 H   0  0
   -0.5442    1.4499   -0.8836 H   0  0
   -0.7433    2.6791    1.2733 H   0  0
   -1.7609    1.1988    1.2757 H   0  0
    5.6118   -1.4514   10.8741 H   0  0
    5.3237   -3.5252   12.1750 H   0  0
    3.6056   -5.1875   11.5204 H   0  0
    2.1560   -4.7935    9.5560 H   0  0
    5.7623    0.1966    8.8687 H   0  0
    4.8626    0.7428    7.4131 H   0  0
    4.9418    3.0015    8.2173 H   0  0
    5.8363    2.4596    9.6635 H   0  0
    4.3082    3.4104    9.8638 H   0  0
  1  2  1  0
  2  3  1  0
  3  7  1  0
  3  4  2  0
  4  5  1  0
  5  6  2  0
  6  7  1  0
  6  8  1  0
  8  9  1  0
  9 10  2  0
  9 11  1  0
 11 19  1  0
 11 12  2  0
 12 13  1  0
 12 20  1  0
 13 18  1  0
 13 14  2  0
 14 15  1  0
 15 16  2  0
 16 17  1  0
 17 18  2  0
 18 19  1  0
 20 21  1  0
 21 22  1  0
  1 23  1  0
  1 24  1  0
  1 25  1  0
  2 26  1  0
  2 27  1  0
 14 28  1  0
 15 29  1  0
 16 30  1  0
 17 31  1  0
 20 32  1  0
 20 33  1  0
 22 34  1  0
 22 35  1  0
 22 36  1  0
M  CHG  1   8  -1
M  END
> <Name>
ZINC07347192

> <reference>
BDB50018850

> <quality>
0.730

> <status>
decoy

$$$$
ZINC04234411
  SciTegic06061311253D

 36 37  0  0  0  0            999 V2000
    2.4565    1.0048   -0.0160 C   0  0
    1.2803    1.9831    0.0005 C   0  0
   -0.0144    1.2119    0.0087 C   0  0
    0.0021   -0.0041    0.0020 O   0  0
   -1.1739    1.8605    0.0177 N   0  0
   -2.3179    1.1791    0.0195 C   0  0
   -3.5870    1.6637    0.0281 N   0  0
   -4.6626    0.7921    0.0280 C   0  0
   -6.0342    1.1000    0.0357 C   0  0
   -6.9798    0.0999    0.0346 C   0  0
   -6.6106   -1.2370    0.0252 C   0  0
   -5.2651   -1.5667    0.0171 C   0  0
   -4.3205   -0.5669    0.0186 C   0  0
   -2.5456   -0.5399    0.0035 S   0  0
   -7.5519   -2.2061    0.0235 F   0  0
   -6.4287    2.3921    0.0454 F   0  0
   -3.8176    3.1104    0.0371 C   0  0
   -3.9028    3.6143   -1.3807 C   0  0
   -3.7832    2.8440   -2.3038 O   0  0
   -4.1117    4.9189   -1.6179 O   0  0
   -4.1825    5.3331   -3.0077 C   0  0
   -4.4234    6.8423   -3.0785 C   0  0
    2.3993    0.3762   -0.9169 H   0  0
    2.4165    0.3665    0.8790 H   0  0
    3.4019    1.5671   -0.0220 H   0  0
    1.3203    2.6215   -0.8944 H   0  0
    1.3381    2.6111    0.9018 H   0  0
   -8.0472    0.3656    0.0413 H   0  0
   -4.9540   -2.6218    0.0095 H   0  0
   -2.9865    3.6121    0.5544 H   0  0
   -4.7603    3.3283    0.5604 H   0  0
   -5.0095    4.8068   -3.5067 H   0  0
   -3.2356    5.0895   -3.5118 H   0  0
   -3.5966    7.3703   -2.5809 H   0  0
   -5.3701    7.0875   -2.5749 H   0  0
   -4.4771    7.1568   -4.1312 H   0  0
  1  2  1  0
  2  3  1  0
  3  4  2  0
  3  5  1  0
  5  6  2  0
  6 14  1  0
  6  7  1  0
  7  8  1  0
  7 17  1  0
  8 13  2  0
  8  9  1  0
  9 10  2  0
  9 16  1  0
 10 11  1  0
 11 12  2  0
 11 15  1  0
 12 13  1  0
 13 14  1  0
 17 18  1  0
 18 19  2  0
 18 20  1  0
 20 21  1  0
 21 22  1  0
  1 23  1  0
  1 24  1  0
  1 25  1  0
  2 26  1  0
  2 27  1  0
 10 28  1  0
 12 29  1  0
 17 30  1  0
 17 31  1  0
 21 32  1  0
 21 33  1  0
 22 34  1  0
 22 35  1  0
 22 36  1  0
M  END
> <Name>
ZINC04234411

> <reference>
BDB50018850

> <quality>
0.729

> <status>
decoy

$$$$
ZINC13522404
  SciTegic06061311253D

 47 48  0  0  0  0            999 V2000
    1.5467    6.9680    1.2621 C   0  0
    1.0225    6.1256    2.2905 O   0  0
    0.0929    5.2048    1.9202 C   0  0
   -0.3039    5.1162    0.5933 C   0  0
   -1.2455    4.1788    0.2080 C   0  0
   -1.8048    3.3297    1.1459 C   0  0
   -1.4088    3.4133    2.4860 C   0  0
   -0.4556    4.3569    2.8678 C   0  0
   -1.9560    2.5714    3.4192 N   0  0
   -2.4710    3.0611    4.5235 C   0  0
   -2.9040    2.2133    5.5146 N   0  0
   -3.4786    2.7596    6.7466 C   0  0
   -3.8769    1.6116    7.6763 C   0  0
   -4.4769    2.1821    8.9630 C   0  0
   -4.8593    1.0800    9.8556 N   0  0
   -5.9619    0.2952    9.2814 C   0  0
   -6.2876   -0.8750   10.2132 C   0  0
   -6.6028   -0.3692   11.5133 O   0  0
   -5.5507    0.3996   12.1026 C   0  0
   -5.2175    1.5827   11.1899 C   0  0
   -2.6067    4.8052    4.7345 S   0  5
   -2.7339    2.4113    0.7658 O   0  0
   -3.0898    2.3830   -0.6179 C   0  0
    0.6834    7.4794    0.8113 H   0  0
    1.9764    6.2982    0.5027 H   0  0
    2.2915    7.6850    1.6378 H   0  0
    0.1321    5.7942   -0.1552 H   0  0
   -1.5501    4.1085   -0.8466 H   0  0
   -0.1401    4.4275    3.9192 H   0  0
   -1.9632    1.5547    3.2542 H   0  0
   -2.7341    3.3954    7.2481 H   0  0
   -4.3683    3.3589    6.5033 H   0  0
   -4.6218    0.9756    7.1756 H   0  0
   -2.9881    1.0117    7.9216 H   0  0
   -5.3666    2.7815    8.7197 H   0  0
   -3.7324    2.8179    9.4645 H   0  0
   -5.6638   -0.0929    8.2963 H   0  0
   -6.8501    0.9349    9.1720 H   0  0
   -7.1501   -1.4309    9.8169 H   0  0
   -5.4175   -1.5446   10.2814 H   0  0
   -5.8751    0.7742   13.0847 H   0  0
   -4.6579   -0.2311   12.2255 H   0  0
   -4.3699    2.1433   11.6110 H   0  0
   -6.0936    2.2432   11.1117 H   0  0
   -2.1562    2.2118   -1.1739 H   0  0
   -3.4496    3.3926   -0.8654 H   0  0
   -3.8445    1.6164   -0.8476 H   0  0
  1  2  1  0
  2  3  1  0
  3  8  2  0
  3  4  1  0
  4  5  2  0
  5  6  1  0
  6  7  2  0
  6 22  1  0
  7  8  1  0
  7  9  1  0
  9 10  1  0
 10 11  2  0
 10 21  1  0
 11 12  1  0
 12 13  1  0
 13 14  1  0
 14 15  1  0
 15 20  1  0
 15 16  1  0
 16 17  1  0
 17 18  1  0
 18 19  1  0
 19 20  1  0
 22 23  1  0
  1 24  1  0
  1 25  1  0
  1 26  1  0
  4 27  1  0
  5 28  1  0
  8 29  1  0
  9 30  1  0
 12 31  1  0
 12 32  1  0
 13 33  1  0
 13 34  1  0
 14 35  1  0
 14 36  1  0
 16 37  1  0
 16 38  1  0
 17 39  1  0
 17 40  1  0
 19 41  1  0
 19 42  1  0
 20 43  1  0
 20 44  1  0
 23 45  1  0
 23 46  1  0
 23 47  1  0
M  CHG  1  21  -1
M  END
> <Name>
ZINC13522404

> <reference>
BDB50039530

> <quality>
0.785

> <status>
decoy

$$$$
ZINC06403537
  SciTegic06061311253D

 39 39  0  0  0  0            999 V2000
   -0.0010    1.0873    0.0886 C   0  0
   -0.5756    1.5595    1.3088 O   0  0
   -0.6697    2.9071    1.4661 C   0  0
   -0.2188    3.7524    0.4681 C   0  0
   -0.3158    5.1365    0.6304 C   0  0
   -0.8681    5.6627    1.8007 C   0  0
   -1.3172    4.8122    2.7951 C   0  0
   -1.2245    3.4341    2.6281 C   0  0
   -1.6721    2.6002    3.6054 O   0  0
   -0.7336    2.2196    4.6136 C   0  0
   -1.8554    5.3237    3.9345 O   0  0
   -1.9255    6.7473    4.0367 C   0  0
    0.1643    6.0402   -0.4311 C   0  0
    0.0735    7.3259   -0.2789 N   0  0
    0.5297    8.1845   -1.2876 N   0  0
    0.4335    9.5484   -1.1262 C   0  0
   -0.0825   10.0412   -0.0339 N   0  0
   -0.2946   11.4856    0.0892 C   0  0
   -1.7712   11.7696    0.1902 C   0  0
   -2.2379   12.4586    1.2020 C   0  0
    1.0071   10.6284   -2.3947 S   0  5
    1.0019    1.5347    0.0256 H   0  0
   -0.6104    1.5096   -0.7240 H   0  0
    0.0410   -0.0106    0.0349 H   0  0
    0.2157    3.3351   -0.4523 H   0  0
   -0.9458    6.7521    1.9314 H   0  0
   -0.3706    3.1539    5.0667 H   0  0
    0.1107    1.7491    4.0884 H   0  0
   -1.1681    1.5461    5.3670 H   0  0
   -2.5082    7.0913    3.1694 H   0  0
   -0.8961    7.1168    3.9195 H   0  0
   -2.3716    7.0845    4.9840 H   0  0
    0.5994    5.6247   -1.3520 H   0  0
    0.9370    7.7954   -2.1499 H   0  0
    0.1162   11.9944   -0.7953 H   0  0
    0.2120   11.8550    0.9930 H   0  0
   -2.4570   11.3984   -0.5856 H   0  0
   -1.5521   12.8298    1.9778 H   0  0
   -3.3157   12.6659    1.2758 H   0  0
  1  2  1  0
  2  3  1  0
  3  8  2  0
  3  4  1  0
  4  5  2  0
  5  6  1  0
  5 13  1  0
  6  7  2  0
  7  8  1  0
  7 11  1  0
  8  9  1  0
  9 10  1  0
 11 12  1  0
 13 14  2  0
 14 15  1  0
 15 16  1  0
 16 17  2  0
 16 21  1  0
 17 18  1  0
 18 19  1  0
 19 20  2  0
  1 22  1  0
  1 23  1  0
  1 24  1  0
  4 25  1  0
  6 26  1  0
 10 27  1  0
 10 28  1  0
 10 29  1  0
 12 30  1  0
 12 31  1  0
 12 32  1  0
 13 33  1  0
 15 34  1  0
 18 35  1  0
 18 36  1  0
 19 37  1  0
 20 38  1  0
 20 39  1  0
M  CHG  1  21  -1
M  END
> <Name>
ZINC06403537

> <reference>
BDB50039530

> <quality>
0.782

> <status>
decoy

$$$$
ZINC12419735
  SciTegic06061311253D

 48 49  0  0  0  0            999 V2000
   -0.8004    1.6195   -6.2282 C   0  0
   -0.0604    1.1126   -4.9886 C   0  0
   -0.7766    1.6061   -3.7298 C   0  0
   -0.0366    1.0992   -2.4903 C   0  0
   -0.7527    1.5927   -1.2315 C   0  0
   -0.0127    1.0858    0.0080 C   0  0
   -0.6984    1.5583    1.2133 N   0  0
   -0.2119    1.2256    2.4567 C   0  0
    0.8582    0.4913    2.6842 N   0  0
    1.0507    0.3615    3.9978 C   0  0
    0.0349    1.0599    4.6417 C   0  0
   -0.7571    1.6081    3.6417 N   0  0
   -1.9510    2.4366    3.8277 C   0  0
   -3.1698    1.5530    3.8965 C   0  0
   -3.6366    1.1702    5.0592 C   0  0
   -3.8518    1.1097    2.6279 C   0  0
    0.0027    1.0844    6.0471 C   0  0
   -0.8783    1.6898    6.6324 O   0  0
    0.9571    0.4304    6.7410 N   0  0
    1.9346   -0.2417    6.1088 C   0  0
    2.7785   -0.8194    6.7668 O   0  0
    2.0026   -0.2907    4.7651 N   0  0
    3.0835   -1.0345    4.1135 C   0  0
   -0.8156    2.7194   -6.2233 H   0  0
   -1.8325    1.2391   -6.2215 H   0  0
   -0.2860    1.2651   -7.1336 H   0  0
   -0.0460    0.0127   -4.9942 H   0  0
    0.9717    1.4929   -4.9952 H   0  0
   -0.7910    2.7060   -3.7233 H   0  0
   -1.8087    1.2257   -3.7209 H   0  0
   -0.0222   -0.0007   -2.4959 H   0  0
    0.9955    1.4795   -2.4970 H   0  0
   -0.7671    2.6926   -1.2250 H   0  0
   -1.7848    1.2124   -1.2225 H   0  0
    0.0017   -0.0141    0.0024 H   0  0
    1.0194    1.4661    0.0013 H   0  0
   -1.5446    2.1395    1.1300 H   0  0
   -2.0510    3.1328    2.9819 H   0  0
   -1.8593    3.0074    4.7636 H   0  0
   -3.1389    1.4938    5.9853 H   0  0
   -4.5263    0.5252    5.1094 H   0  0
   -3.0633    0.6118    2.0445 H   0  0
   -4.0979    2.0431    2.1005 H   0  0
   -4.7310    0.4680    2.7866 H   0  0
    0.9364    0.4463    7.7707 H   0  0
    3.5792   -0.3026    3.4589 H   0  0
    2.5770   -1.7618    3.4620 H   0  0
    3.7832   -1.5136    4.8141 H   0  0
  1  2  1  0
  2  3  1  0
  3  4  1  0
  4  5  1  0
  5  6  1  0
  6  7  1  0
  7  8  1  0
  8 12  1  0
  8  9  2  0
  9 10  1  0
 10 22  1  0
 10 11  2  0
 11 12  1  0
 11 17  1  0
 12 13  1  0
 13 14  1  0
 14 15  2  0
 14 16  1  0
 17 18  2  0
 17 19  1  0
 19 20  1  0
 20 21  2  0
 20 22  1  0
 22 23  1  0
  1 24  1  0
  1 25  1  0
  1 26  1  0
  2 27  1  0
  2 28  1  0
  3 29  1  0
  3 30  1  0
  4 31  1  0
  4 32  1  0
  5 33  1  0
  5 34  1  0
  6 35  1  0
  6 36  1  0
  7 37  1  0
 13 38  1  0
 13 39  1  0
 15 40  1  0
 15 41  1  0
 16 42  1  0
 16 43  1  0
 16 44  1  0
 19 45  1  0
 23 46  1  0
 23 47  1  0
 23 48  1  0
M  END
> <Name>
ZINC12419735

> <reference>
BDB50039530

> <quality>
0.779

> <status>
decoy

$$$$
ZINC05755989
  SciTegic06061311253D

 39 39  0  0  0  0            999 V2000
   -7.8261   -1.4822    4.2189 C   0  0
   -6.4818   -0.7559    4.2972 C   0  0
   -5.9734   -0.4700    2.8827 C   0  0
   -4.6291    0.2563    2.9611 C   0  0
   -4.1283    0.5379    1.5678 C   0  0
   -4.7798    0.1929    0.6105 O   0  0
   -2.9585    1.1718    1.3905 O   0  0
   -2.5386    1.4095    0.0210 C   0  0
   -1.2130    2.1263    0.0192 C   0  0
   -0.0173    1.4278    0.0099 C   0  0
    1.1713    2.1663    0.0025 C   0  0
    0.6137    3.8072    0.0167 S   0  0
   -1.1432    3.5051    0.0319 C   0  0
   -2.2039    4.4459    0.0467 C   0  0
   -3.3583    4.0612    0.0553 O   0  0
   -1.9332    5.7680    0.0513 O   0  0
   -3.0504    6.6589    0.0663 C   0  0
   -2.5498    8.1047    0.0695 C   0  0
    2.4673    1.7026   -0.0120 N   0  0
    0.0021   -0.0041    0.0020 C   0  0
    0.0175   -1.1399   -0.0042 N   0  0
   -7.7004   -2.4309    3.6765 H   0  0
   -8.5546   -0.8512    3.6888 H   0  0
   -8.1922   -1.6881    5.2356 H   0  0
   -6.6085    0.1927    4.8394 H   0  0
   -5.7532   -1.3869    4.8273 H   0  0
   -5.8461   -1.4183    2.3400 H   0  0
   -6.7003    0.1619    2.3513 H   0  0
   -3.9005   -0.3747    3.4913 H   0  0
   -4.7558    1.2049    3.5033 H   0  0
   -2.4356    0.4479   -0.5032 H   0  0
   -3.2898    2.0281   -0.4919 H   0  0
   -3.6528    6.4783    0.9688 H   0  0
   -3.6684    6.4874   -0.8274 H   0  0
   -1.9481    8.2874   -0.8330 H   0  0
   -1.9317    8.2778    0.9628 H   0  0
   -3.4093    8.7910    0.0810 H   0  0
    2.5433    0.6754   -0.0179 H   0  0
    3.3013    2.3070   -0.0168 H   0  0
  1  2  1  0
  2  3  1  0
  3  4  1  0
  4  5  1  0
  5  6  2  0
  5  7  1  0
  7  8  1  0
  8  9  1  0
  9 13  2  0
  9 10  1  0
 10 11  2  0
 10 20  1  0
 11 12  1  0
 11 19  1  0
 12 13  1  0
 13 14  1  0
 14 15  2  0
 14 16  1  0
 16 17  1  0
 17 18  1  0
 20 21  3  0
  1 22  1  0
  1 23  1  0
  1 24  1  0
  2 25  1  0
  2 26  1  0
  3 27  1  0
  3 28  1  0
  4 29  1  0
  4 30  1  0
  8 31  1  0
  8 32  1  0
 17 33  1  0
 17 34  1  0
 18 35  1  0
 18 36  1  0
 18 37  1  0
 19 38  1  0
 19 39  1  0
M  END
> <Name>
ZINC05755989

> <reference>
BDB50039530

> <quality>
0.739

> <status>
decoy

$$$$
ZINC27719174
  SciTegic06061311253D

 44 44  0  0  1  0            999 V2000
    0.0350    1.0590    5.0047 C   0  0
   -0.7050    1.5658    3.7651 C   0  0
    0.0111    1.0724    2.5063 C   0  0
   -0.7288    1.5792    1.2668 C   0  0
   -0.0127    1.0858    0.0080 C   0  0
   -0.7213    1.5711   -1.1789 N   0  0
   -0.2681    1.2584   -2.4090 C   0  0
    0.7262    0.5752   -2.5335 O   0  0
   -0.9970    1.7576   -3.6299 C   0  0  1  0  0  0
   -0.9103    3.2841   -3.6870 C   0  0
   -0.3884    1.1934   -4.8214 O   0  0
   -1.1936    0.9948   -5.8848 C   0  0
   -2.3727    1.2856   -5.8175 O   0  0
   -0.6481    0.4287   -7.1214 C   0  0
   -0.1244    1.2235   -8.1396 C   0  0
    0.3441    0.6495   -9.2113 N   0  0
    0.1162   -1.0198   -8.9342 S   0  0
   -0.6098   -0.9502   -7.3628 C   0  0
   -1.0406   -1.9851   -6.5584 N   0  0
   -0.9038   -3.3713   -7.0122 C   0  0
   -0.1008    2.7241   -8.0031 C   0  0
    1.0671    1.4394    4.9980 H   0  0
    0.0503   -0.0409    4.9997 H   0  0
   -0.4794    1.4134    5.9101 H   0  0
   -1.7368    1.1847    3.7725 H   0  0
   -0.7203    2.6657    3.7700 H   0  0
    1.0429    1.4535    2.4981 H   0  0
    0.0264   -0.0275    2.4991 H   0  0
   -1.7606    1.1981    1.2742 H   0  0
   -0.7441    2.6791    1.2717 H   0  0
    1.0191    1.4670   -0.0002 H   0  0
    0.0026   -0.0141    0.0008 H   0  0
   -1.5658    2.1512   -1.0732 H   0  0
   -2.0524    1.4519   -3.5774 H   0  0
    0.1448    3.5908   -3.7398 H   0  0
   -1.3713    3.7126   -2.7849 H   0  0
   -1.4422    3.6492   -4.5780 H   0  0
   -1.4584   -1.7831   -5.6389 H   0  0
    0.1676   -3.4966   -7.2275 H   0  0
   -1.4350   -3.4102   -7.9746 H   0  0
   -1.2784   -4.1163   -6.2948 H   0  0
    0.4514    2.9132   -7.0707 H   0  0
   -1.1481    3.0065   -7.8205 H   0  0
    0.3348    3.2474   -8.8671 H   0  0
  1  2  1  0
  2  3  1  0
  3  4  1  0
  4  5  1  0
  5  6  1  0
  6  7  1  0
  7  8  2  0
  7  9  1  0
  9 10  1  0
  9 11  1  0
 11 12  1  0
 12 13  2  0
 12 14  1  0
 14 18  2  0
 14 15  1  0
 15 16  2  0
 15 21  1  0
 16 17  1  0
 17 18  1  0
 18 19  1  0
 19 20  1  0
  1 22  1  0
  1 23  1  0
  1 24  1  0
  2 25  1  0
  2 26  1  0
  3 27  1  0
  3 28  1  0
  4 29  1  0
  4 30  1  0
  5 31  1  0
  5 32  1  0
  6 33  1  0
  9 34  1  0
 10 35  1  0
 10 36  1  0
 10 37  1  0
 19 38  1  0
 20 39  1  0
 20 40  1  0
 20 41  1  0
 21 42  1  0
 21 43  1  0
 21 44  1  0
M  END
> <Name>
ZINC27719174

> <reference>
BDB50039530

> <quality>
0.734

> <status>
decoy

$$$$
ZINC12168844
  SciTegic06061311253D

 45 46  0  0  0  0            999 V2000
    3.1484    8.2634    1.3238 C   0  0
    3.7478    7.7631    0.0080 C   0  0  1  0  0  0
    5.1813    8.2800   -0.1287 C   0  0
    3.7543    6.2332   -0.0003 C   0  0
    2.3141    5.7169    0.0107 C   0  0
    2.3204    4.2519    0.0027 N   0  0
    1.1562    3.5730    0.0102 C   0  0
    0.1013    4.1760    0.0235 O   0  0
    1.1625    2.0923    0.0022 C   0  0
   -0.0171    1.4121    0.0098 C   0  0
    0.0021   -0.0041    0.0020 C   0  0
   -1.0411   -0.6417    0.0082 O   0  0
    1.2531   -0.6668   -0.0135 C   0  0
    2.3960    0.0675   -0.0205 C   0  0
    2.3502    1.4211   -0.0127 N   0  0
    1.3100   -2.0257   -0.0209 O   0  0
    2.6093   -2.6205   -0.0365 C   0  0
    2.4746   -4.1214   -0.0428 C   0  0
    2.4303   -4.8159    1.1518 C   0  0
    2.3019   -6.1919    1.1474 C   0  0
    2.2283   -6.8759   -0.0542 C   0  0
    2.2782   -6.1798   -1.2501 C   0  0
    2.4012   -4.8033   -1.2431 C   0  0
    2.1076   -8.2215   -0.0598 F   0  0
    3.1430    9.3634    1.3306 H   0  0
    3.7521    7.8951    2.1664 H   0  0
    2.1177    7.8921    1.4227 H   0  0
    3.1434    8.1318   -0.8338 H   0  0
    5.7867    7.9117    0.7126 H   0  0
    5.1776    9.3800   -0.1231 H   0  0
    5.6128    7.9206   -1.0746 H   0  0
    4.2653    5.8735   -0.9056 H   0  0
    4.2826    5.8628    0.8906 H   0  0
    1.8027    6.0759    0.9160 H   0  0
    1.7845    6.0854   -0.8802 H   0  0
    3.2146    3.7408   -0.0087 H   0  0
   -0.9732    1.9559    0.0218 H   0  0
    3.3701   -0.4433   -0.0326 H   0  0
    3.2309    1.9552   -0.0181 H   0  0
    3.1681   -2.3070    0.8577 H   0  0
    3.1497   -2.2976   -0.9385 H   0  0
    2.4973   -4.2730    2.1062 H   0  0
    2.2582   -6.7435    2.0981 H   0  0
    2.2200   -6.7222   -2.2053 H   0  0
    2.4407   -4.2500   -2.1930 H   0  0
  1  2  1  0
  2  3  1  0
  2  4  1  0
  4  5  1  0
  5  6  1  0
  6  7  1  0
  7  8  2  0
  7  9  1  0
  9 15  1  0
  9 10  2  0
 10 11  1  0
 11 12  2  0
 11 13  1  0
 13 14  2  0
 13 16  1  0
 14 15  1  0
 16 17  1  0
 17 18  1  0
 18 23  2  0
 18 19  1  0
 19 20  2  0
 20 21  1  0
 21 22  2  0
 21 24  1  0
 22 23  1  0
  1 25  1  0
  1 26  1  0
  1 27  1  0
  2 28  1  0
  3 29  1  0
  3 30  1  0
  3 31  1  0
  4 32  1  0
  4 33  1  0
  5 34  1  0
  5 35  1  0
  6 36  1  0
 10 37  1  0
 14 38  1  0
 15 39  1  0
 17 40  1  0
 17 41  1  0
 19 42  1  0
 20 43  1  0
 22 44  1  0
 23 45  1  0
M  END
> <Name>
ZINC12168844

> <reference>
BDB50039530

> <quality>
0.733

> <status>
decoy

$$$$
ZINC04770021
  SciTegic06061311253D

 32 32  0  0  1  0            999 V2000
    4.8972    9.5379    0.1498 C   0  0
    5.0872    8.0348   -0.0639 C   0  0
    3.8094    7.3603    0.0793 O   0  0
    3.8027    6.0234   -0.0800 C   0  0
    4.8363    5.4364   -0.3317 O   0  0
    2.6494    5.3363    0.0398 N   0  0
    2.6597    3.8724   -0.0167 C   0  0  1  0  0  0
    3.2536    3.4244   -1.3273 C   0  0
    3.8712    4.2072   -2.0097 O   0  0
    3.0963    2.1558   -1.7367 O   0  0
    3.6953    1.7947   -3.0091 C   0  0
    3.5000    3.3233    1.1381 C   0  0  1  0  0  0
    3.3967    1.9285    1.1679 F   0  0
    4.8382    3.6881    0.9556 F   0  0
    3.0333    3.8514    2.3466 F   0  0
    1.2882    3.3697    0.0952 N   0  5
    0.4008    3.5371   -0.9563 C   0  0
   -0.8272    3.0725   -1.0867 N   0  0
   -1.5432    3.3287   -2.1655 C   0  0
   -0.9892    4.0836   -3.1441 C   0  0
    0.6199    4.4121   -2.4401 S   0  0
    4.4992    9.7184    1.1593 H   0  0
    4.1911    9.9292   -0.5974 H   0  0
    5.8649   10.0495    0.0414 H   0  0
    5.4849    7.8553   -1.0737 H   0  0
    5.7933    7.6435    0.6833 H   0  0
    1.7608    5.8404    0.1711 H   0  0
    4.7684    2.0202   -2.9217 H   0  0
    3.2664    2.4764   -3.7583 H   0  0
    3.5231    0.7412   -3.2744 H   0  0
   -2.5664    2.9381   -2.2675 H   0  0
   -1.4130    4.4056   -4.1068 H   0  0
  1  2  1  0
  2  3  1  0
  3  4  1  0
  4  5  2  0
  4  6  1  0
  6  7  1  0
  7  8  1  0
  7 12  1  0
  7 16  1  0
  8  9  2  0
  8 10  1  0
 10 11  1  0
 12 13  1  0
 12 14  1  0
 12 15  1  0
 16 17  1  0
 17 21  1  0
 17 18  2  0
 18 19  1  0
 19 20  2  0
 20 21  1  0
  1 22  1  0
  1 23  1  0
  1 24  1  0
  2 25  1  0
  2 26  1  0
  6 27  1  0
 11 28  1  0
 11 29  1  0
 11 30  1  0
 19 31  1  0
 20 32  1  0
M  CHG  1  16  -1
M  END
> <Name>
ZINC04770021

> <reference>
BDB50039530

> <quality>
0.732

> <status>
decoy

$$$$
ZINC22812152
  SciTegic06061311253D

 38 39  0  0  1  0            999 V2000
   -6.6714    4.4529    4.3568 C   0  0
   -5.6763    5.2862    5.1668 C   0  0  1  0  0  0
   -5.2734    6.4663    4.3846 C   0  0
   -4.9625    7.3771    3.7809 N   0  0
   -6.3339    5.7395    6.4717 C   0  0  2  0  0  0
   -7.7498    5.2371    6.7610 C   0  0
   -7.5218    6.6982    6.3683 C   0  0
   -4.4946    4.4756    5.4713 N   0  5
   -3.7518    3.9643    4.4697 C   0  0
   -4.0616    4.1752    3.3163 O   0  0
   -2.5362    3.1304    4.7830 C   0  0
   -1.9065    2.6964    3.5335 N   0  0
   -0.7529    1.9046    3.5694 C   0  0
   -0.2045    1.5294    4.7872 C   0  0
    0.9346    0.7470    4.8200 C   0  0
    1.5294    0.3365    3.6414 C   0  0
    0.9854    0.7022    2.4239 C   0  0
   -0.1525    1.4908    2.3823 C   0  0
   -0.6858    1.8556    1.1854 O   0  0
   -0.0169    1.3948    0.0097 C   0  0  2  0  0  0
    0.0021   -0.0041    0.0020 F   0  0
    1.2956    1.8790   -0.0002 F   0  0
   -0.6935    1.8582   -1.1237 F   0  0
   -6.1994    4.1263    3.4185 H   0  0
   -7.5592    5.0606    4.1277 H   0  0
   -6.9729    3.5708    4.9408 H   0  0
   -5.3803    5.7380    7.0200 H   0  0
   -7.9287    5.1339    7.8414 H   0  0
   -8.1495    4.6517    5.9198 H   0  0
   -7.8023    6.8819    5.3207 H   0  0
   -7.5798    7.3638    7.2422 H   0  0
   -1.8204    3.7296    5.3649 H   0  0
   -2.8361    2.2480    5.3673 H   0  0
   -2.3127    2.9739    2.6286 H   0  0
   -0.6760    1.8544    5.7264 H   0  0
    1.3688    0.4503    5.7861 H   0  0
    2.4380   -0.2828    3.6723 H   0  0
    1.4564    0.3668    1.4882 H   0  0
  1  2  1  0
  2  3  1  0
  2  5  1  0
  2  8  1  0
  3  4  3  0
  5  7  1  0
  5  6  1  0
  6  7  1  0
  8  9  1  0
  9 10  2  0
  9 11  1  0
 11 12  1  0
 12 13  1  0
 13 18  2  0
 13 14  1  0
 14 15  2  0
 15 16  1  0
 16 17  2  0
 17 18  1  0
 18 19  1  0
 19 20  1  0
 20 21  1  0
 20 22  1  0
 20 23  1  0
  1 24  1  0
  1 25  1  0
  1 26  1  0
  5 27  1  0
  6 28  1  0
  6 29  1  0
  7 30  1  0
  7 31  1  0
 11 32  1  0
 11 33  1  0
 12 34  1  0
 14 35  1  0
 15 36  1  0
 16 37  1  0
 17 38  1  0
M  CHG  1   8  -1
M  END
> <Name>
ZINC22812152

> <reference>
BDB50039530

> <quality>
0.727

> <status>
decoy

$$$$
ZINC20484486
  SciTegic06061311253D

 47 47  0  0  0  0            999 V2000
  -10.6556    2.3643    1.2380 C   0  0
   -9.2235    2.8529    1.4645 C   0  0
   -8.2577    1.6716    1.3510 C   0  0
   -6.8256    2.1602    1.5774 C   0  0
   -5.9009    1.0292    1.4687 N   0  0
   -5.6450    0.1777    2.6331 C   0  0
   -4.5452    0.8051    3.4919 C   0  0
   -4.2780   -0.0841    4.7079 C   0  0
   -3.1781    0.5433    5.5668 C   0  0
   -5.1448    0.7132    0.0297 S   0  0
   -5.9565    1.2813   -0.9889 O   0  0
   -4.7976   -0.6647    0.0473 O   0  0
   -3.6305    1.6140    0.0280 C   0  0
   -2.4254    0.9389    0.0187 C   0  0
   -1.2323    1.6490    0.0169 C   0  0
   -1.2516    3.0376    0.0302 C   0  0
   -2.4572    3.7109    0.0333 C   0  0
   -3.6488    3.0007    0.0356 C   0  0
   -4.8357    3.6646    0.0448 O   0  0
   -4.7803    5.0925    0.0522 C   0  0
   -0.0111    0.9658    0.0074 N   0  0
  -10.9107    1.6090    1.9959 H   0  0
  -10.7381    1.9192    0.2354 H   0  0
  -11.3505    3.2131    1.3195 H   0  0
   -8.9692    3.6079    0.7060 H   0  0
   -9.1410    3.2980    2.4670 H   0  0
   -8.5111    0.9164    2.1096 H   0  0
   -8.3381    1.2258    0.3486 H   0  0
   -6.5714    2.9152    0.8189 H   0  0
   -6.7430    2.6053    2.5799 H   0  0
   -6.5654    0.0837    3.2282 H   0  0
   -5.3227   -0.8187    2.2964 H   0  0
   -3.6244    0.8990    2.8975 H   0  0
   -4.8662    1.8012    3.8305 H   0  0
   -5.1984   -0.1780    5.3029 H   0  0
   -3.9557   -1.0805    4.3712 H   0  0
   -3.4992    1.5394    5.9054 H   0  0
   -2.2569    0.6378    4.9731 H   0  0
   -2.9855   -0.0956    6.4413 H   0  0
   -2.4110   -0.1610    0.0127 H   0  0
   -0.3068    3.6009    0.0383 H   0  0
   -2.4727    4.8108    0.0339 H   0  0
   -4.2039    5.3842   -0.8381 H   0  0
   -4.1955    5.3747    0.9401 H   0  0
   -5.7774    5.5570    0.0594 H   0  0
    0.0026   -0.0641    0.0017 H   0  0
    0.8739    1.4927    0.0061 H   0  0
  1  2  1  0
  2  3  1  0
  3  4  1  0
  4  5  1  0
  5  6  1  0
  5 10  1  0
  6  7  1  0
  7  8  1  0
  8  9  1  0
 10 11  2  0
 10 12  2  0
 10 13  1  0
 13 18  2  0
 13 14  1  0
 14 15  2  0
 15 16  1  0
 15 21  1  0
 16 17  2  0
 17 18  1  0
 18 19  1  0
 19 20  1  0
  1 22  1  0
  1 23  1  0
  1 24  1  0
  2 25  1  0
  2 26  1  0
  3 27  1  0
  3 28  1  0
  4 29  1  0
  4 30  1  0
  6 31  1  0
  6 32  1  0
  7 33  1  0
  7 34  1  0
  8 35  1  0
  8 36  1  0
  9 37  1  0
  9 38  1  0
  9 39  1  0
 14 40  1  0
 16 41  1  0
 17 42  1  0
 20 43  1  0
 20 44  1  0
 20 45  1  0
 21 46  1  0
 21 47  1  0
M  END
> <Name>
ZINC20484486

> <reference>
BDB50039530

> <quality>
0.723

> <status>
decoy

$$$$
ZINC20215445
  SciTegic06061311253D

 37 37  0  0  0  0            999 V2000
    1.4967    4.7712    0.0190 C   0  0
    0.6817    3.5538    0.0220 N   0  0
   -0.6732    3.5093    0.0530 C   0  0
   -1.0691    2.2134    0.0414 C   0  0
    0.0787    1.4146    0.0117 C   0  0
    1.1641    2.2649   -0.0001 C   0  0
    2.5758    1.8681   -0.0306 C   0  0
    3.4473    2.7132    0.0535 O   0  0
    2.9077    0.5675   -0.1519 N   0  0
    4.3123    0.1593   -0.0703 C   0  0
    4.4131   -1.3581   -0.2381 C   0  0
    5.8800   -1.7844   -0.1529 C   0  0
    5.9807   -3.3018   -0.3207 C   0  0
    7.4477   -3.7281   -0.2355 C   0  0
    7.5484   -5.2455   -0.4033 C   0  0
    8.9933   -5.6654   -0.3194 C   0  0
    9.8542   -4.8361   -0.1434 O   0  0
    9.3239   -6.9607   -0.4401 O   0  5
   -2.8559    1.5948    0.0678 Br  0  0
    2.1275    4.6359   -0.8719 H   0  0
    2.1605    4.6182    0.8827 H   0  0
    0.9526    5.7270    0.0389 H   0  0
   -1.3416    4.3824    0.0827 H   0  0
    0.1097    0.3151    0.0000 H   0  0
    2.1738   -0.1395   -0.3020 H   0  0
    4.8852    0.6547   -0.8680 H   0  0
    4.7227    0.4472    0.9088 H   0  0
    3.8408   -1.8542    0.5596 H   0  0
    4.0042   -1.6478   -1.2173 H   0  0
    6.4529   -1.2890   -0.9506 H   0  0
    6.2904   -1.4965    0.8262 H   0  0
    5.4084   -3.7978    0.4770 H   0  0
    5.5718   -3.5915   -1.2999 H   0  0
    8.0206   -3.2327   -1.0333 H   0  0
    7.8581   -3.4402    0.7436 H   0  0
    7.1394   -5.5352   -1.3825 H   0  0
    6.9761   -5.7415    0.3944 H   0  0
  1  2  1  0
  2  6  1  0
  2  3  1  0
  3  4  2  0
  4  5  1  0
  4 19  1  0
  5  6  2  0
  6  7  1  0
  7  8  2  0
  7  9  1  0
  9 10  1  0
 10 11  1  0
 11 12  1  0
 12 13  1  0
 13 14  1  0
 14 15  1  0
 15 16  1  0
 16 17  2  0
 16 18  1  0
  1 20  1  0
  1 21  1  0
  1 22  1  0
  3 23  1  0
  5 24  1  0
  9 25  1  0
 10 26  1  0
 10 27  1  0
 11 28  1  0
 11 29  1  0
 12 30  1  0
 12 31  1  0
 13 32  1  0
 13 33  1  0
 14 34  1  0
 14 35  1  0
 15 36  1  0
 15 37  1  0
M  CHG  1  18  -1
M  END
> <Name>
ZINC20215445

> <reference>
BDB50039530

> <quality>
0.720

> <status>
decoy

$$$$
ZINC13855335
  SciTegic06061311253D

 38 38  0  0  0  0            999 V2000
   -1.1714   -6.3252   -0.9376 C   0  0
   -1.1428   -4.7985   -1.0338 C   0  0
    0.1525   -4.2725   -0.4122 C   0  0
    0.1807   -2.7687   -0.5070 C   0  0
   -0.7443   -2.1760   -1.0211 O   0  0
    1.2337   -2.0825   -0.0204 N   0  0
    1.2116   -0.6816   -0.0079 C   0  0
    0.0132   -0.0076    0.1861 C   0  0
   -0.0078    1.3730    0.1988 C   0  0
    1.1680    2.0866    0.0178 C   0  0
    2.3655    1.4139   -0.1761 C   0  0
    2.3880    0.0333   -0.1890 C   0  0
    1.1465    3.4461    0.0299 O   0  0
    2.3937    4.1164   -0.1627 C   0  0
    2.1718    5.6296   -0.1179 C   0  0
    1.7258    6.0182    1.2224 N   0  5
    1.4667    7.3119    1.4976 C   0  0
    1.6027    8.1543    0.6357 O   0  0
    1.0080    7.7117    2.8763 C   0  0  1  0  0  0
    0.8051    9.0953    2.9172 F   0  0
   -0.1902    7.0555    3.1776 F   0  0
    1.9834    7.3555    3.8138 F   0  0
   -1.1231   -6.6280    0.1188 H   0  0
   -0.3097   -6.7439   -1.4782 H   0  0
   -2.1025   -6.7041   -1.3844 H   0  0
   -1.1908   -4.4966   -2.0905 H   0  0
   -2.0045   -4.3797   -0.4933 H   0  0
    1.0154   -4.6894   -0.9522 H   0  0
    0.2009   -4.5737    0.6447 H   0  0
    2.0546   -2.5879    0.3423 H   0  0
   -0.9192   -0.5733    0.3296 H   0  0
   -0.9571    1.9071    0.3525 H   0  0
    3.2974    1.9804   -0.3196 H   0  0
    3.3377   -0.5000   -0.3427 H   0  0
    2.8143    3.8371   -1.1400 H   0  0
    3.0935    3.8253    0.6344 H   0  0
    3.1141    6.1457   -0.3542 H   0  0
    1.4049    5.9108   -0.8546 H   0  0
  1  2  1  0
  2  3  1  0
  3  4  1  0
  4  5  2  0
  4  6  1  0
  6  7  1  0
  7 12  2  0
  7  8  1  0
  8  9  2  0
  9 10  1  0
 10 11  2  0
 10 13  1  0
 11 12  1  0
 13 14  1  0
 14 15  1  0
 15 16  1  0
 16 17  1  0
 17 18  2  0
 17 19  1  0
 19 20  1  0
 19 21  1  0
 19 22  1  0
  1 23  1  0
  1 24  1  0
  1 25  1  0
  2 26  1  0
  2 27  1  0
  3 28  1  0
  3 29  1  0
  6 30  1  0
  8 31  1  0
  9 32  1  0
 11 33  1  0
 12 34  1  0
 14 35  1  0
 14 36  1  0
 15 37  1  0
 15 38  1  0
M  CHG  1  16  -1
M  END
> <Name>
ZINC13855335

> <reference>
BDB50039530

> <quality>
0.718

> <status>
decoy

$$$$
ZINC06386891
  SciTegic06061311253D

 44 45  0  0  0  0            999 V2000
    4.1098    2.1021    1.4172 C   0  0
    3.6576    1.8494   -0.0225 C   0  0
    2.3973    1.1025   -0.0144 N   0  0
    2.4140   -0.3624   -0.0220 C   0  0
    2.4063   -0.8651   -1.4670 C   0  0
    1.1811    1.7864    0.0004 C   0  0
    1.1680    3.1778    0.0071 C   0  0
   -0.0290    3.8594    0.0221 C   0  0
   -1.2344    3.1529    0.0303 C   0  0
   -1.2199    1.7508    0.0173 C   0  0
   -0.0126    1.0758    0.0080 C   0  0
   -2.3879    1.0574    0.0191 O   0  0
   -2.2959   -0.3686    0.0109 C   0  0
   -3.6814   -0.9614    0.0142 C   0  0
   -3.9718   -1.9522   -0.7921 C   0  0
   -2.5166    3.8787    0.0459 C   0  0
   -3.6355    3.2199    0.0535 N   0  3
   -4.8546    3.9101    0.0683 N   0  5
   -6.0567    3.2024    0.0765 C   0  0
   -7.2672    3.7224    0.0904 N   0  0
   -7.4381    1.5615    0.0806 N   0  0
   -6.1913    1.8748    0.0657 N   0  0
   -8.1391    2.6331    0.0928 N   0  0
    4.2576    1.1404    1.9304 H   0  0
    3.3421    2.6854    1.9468 H   0  0
    5.0561    2.6629    1.4119 H   0  0
    3.5097    2.8115   -0.5348 H   0  0
    4.4253    1.2661   -0.5521 H   0  0
    3.3213   -0.7215    0.4857 H   0  0
    1.5252   -0.7431    0.5026 H   0  0
    3.2951   -0.4863   -1.9928 H   0  0
    1.4994   -0.5068   -1.9761 H   0  0
    2.4188   -1.9650   -1.4734 H   0  0
    2.1163    3.7351    0.0004 H   0  0
   -0.0358    4.9594    0.0276 H   0  0
    0.0023   -0.0241    0.0066 H   0  0
   -1.7509   -0.7071    0.9044 H   0  0
   -1.7596   -0.6964   -0.8918 H   0  0
   -4.4489   -0.5622    0.6936 H   0  0
   -3.2044   -2.3515   -1.4715 H   0  0
   -4.9831   -2.3849   -0.7897 H   0  0
   -2.5259    4.9786    0.0511 H   0  0
   -3.6268    2.1899    0.0486 H   0  0
   -9.1679    2.6823    0.1027 H   0  0
  1  2  1  0
  2  3  1  0
  3  4  1  0
  3  6  1  0
  4  5  1  0
  6 11  2  0
  6  7  1  0
  7  8  2  0
  8  9  1  0
  9 10  2  0
  9 16  1  0
 10 11  1  0
 10 12  1  0
 12 13  1  0
 13 14  1  0
 14 15  2  0
 16 17  2  0
 17 18  1  0
 18 19  1  0
 19 22  1  0
 19 20  2  0
 20 23  1  0
 21 22  2  0
 21 23  1  0
  1 24  1  0
  1 25  1  0
  1 26  1  0
  2 27  1  0
  2 28  1  0
  4 29  1  0
  4 30  1  0
  5 31  1  0
  5 32  1  0
  5 33  1  0
  7 34  1  0
  8 35  1  0
 11 36  1  0
 13 37  1  0
 13 38  1  0
 14 39  1  0
 15 40  1  0
 15 41  1  0
 16 42  1  0
 17 43  1  0
 23 44  1  0
M  CHG  2  17   1  18  -1
M  END
> <Name>
ZINC06386891

> <reference>
BDB50039530

> <quality>
0.717

> <status>
decoy

$$$$
ZINC09786615
  SciTegic06061311253D

 46 46  0  0  0  0            999 V2000
    5.6012    6.0623   -3.2635 C   0  0
    5.3070    5.1332   -2.0840 C   0  0
    5.4743    3.6783   -2.5267 C   0  0
    5.1927    2.7887   -1.3973 N   0  0
    6.2748    2.3825   -0.4972 C   0  0
    6.9169    1.0958   -1.0197 C   0  0
    8.0471    0.6716   -0.0797 C   0  0
    3.9380    2.3440   -1.1864 C   0  0
    3.0421    2.6802   -1.9316 O   0  0
    3.6482    1.4289   -0.0246 C   0  0
    2.1821    1.0806   -0.0130 C   0  0
    1.7766   -0.2125   -0.0160 C   0  0
    0.0021   -0.0041    0.0020 S   0  0
   -0.0215    1.7323    0.0116 C   0  0
    1.2638    2.0274    0.0009 N   0  0
   -1.1146    2.5908    0.0217 N   0  0
   -2.3655    2.0891    0.0257 C   0  0
   -2.5378    0.8856    0.0205 O   0  0
   -3.4254    2.9216    0.0355 N   0  0
   -4.7851    2.3762    0.0398 C   0  0
   -5.7802    3.5079    0.0508 C   0  0
   -6.7063    3.5749   -0.8733 C   0  0
    4.9016    5.8469   -4.0846 H   0  0
    6.6328    5.9015   -3.6098 H   0  0
    5.4811    7.1086   -2.9459 H   0  0
    6.0072    5.3491   -1.2635 H   0  0
    4.2754    5.2939   -1.7376 H   0  0
    4.7741    3.4616   -3.3469 H   0  0
    6.5057    3.5154   -2.8725 H   0  0
    7.0331    3.1782   -0.4527 H   0  0
    5.8689    2.2061    0.5098 H   0  0
    7.3244    1.2706   -2.0264 H   0  0
    6.1593    0.2995   -1.0640 H   0  0
    7.6411    0.4952    0.9273 H   0  0
    8.8057    1.4669   -0.0344 H   0  0
    8.5092   -0.2535   -0.4548 H   0  0
    4.2423    0.5087   -0.1254 H   0  0
    3.9117    1.9343    0.9162 H   0  0
    2.3748   -1.1356   -0.0266 H   0  0
   -0.9686    3.6104    0.0261 H   0  0
   -3.2794    3.9412    0.0400 H   0  0
   -4.9289    1.7538    0.9353 H   0  0
   -4.9374    1.7635   -0.8610 H   0  0
   -5.7289    4.2777    0.8348 H   0  0
   -6.7576    2.8051   -1.6573 H   0  0
   -7.4326    4.4010   -0.8652 H   0  0
  1  2  1  0
  2  3  1  0
  3  4  1  0
  4  5  1  0
  4  8  1  0
  5  6  1  0
  6  7  1  0
  8  9  2  0
  8 10  1  0
 10 11  1  0
 11 15  1  0
 11 12  2  0
 12 13  1  0
 13 14  1  0
 14 15  2  0
 14 16  1  0
 16 17  1  0
 17 18  2  0
 17 19  1  0
 19 20  1  0
 20 21  1  0
 21 22  2  0
  1 23  1  0
  1 24  1  0
  1 25  1  0
  2 26  1  0
  2 27  1  0
  3 28  1  0
  3 29  1  0
  5 30  1  0
  5 31  1  0
  6 32  1  0
  6 33  1  0
  7 34  1  0
  7 35  1  0
  7 36  1  0
 10 37  1  0
 10 38  1  0
 12 39  1  0
 16 40  1  0
 19 41  1  0
 20 42  1  0
 20 43  1  0
 21 44  1  0
 22 45  1  0
 22 46  1  0
M  END
> <Name>
ZINC09786615

> <reference>
BDB50039530

> <quality>
0.716

> <status>
decoy

$$$$
ZINC05333328
  SciTegic06061311253D

 43 43  0  0  0  0            999 V2000
   -2.6329   -0.1639   -9.9281 C   0  0
   -1.8520    1.0156   -9.3450 C   0  0
   -1.9453    0.9890   -7.8963 O   0  0
   -1.3070    1.9678   -7.2238 C   0  0
   -0.6894    2.8201   -7.8320 O   0  0
   -1.3579    2.0043   -5.7556 C   0  0
   -0.4515    1.3881   -4.8702 C   0  0
   -0.8655    1.6673   -3.5996 C   0  0
   -2.0011    2.4479   -3.6662 N   0  0
   -2.3136    2.6618   -4.9718 C   0  0
   -3.4235    3.4244   -5.4589 C   0  0
   -4.3334    4.0495   -5.8583 C   0  0
   -5.4742    4.8334   -6.3591 C   0  0  1  0  0  0
   -6.7791    4.2148   -5.8536 C   0  0
   -5.3638    6.2738   -5.8550 C   0  0
   -5.4661    4.8269   -7.7880 O   0  0
   -0.2089    1.2178   -2.3691 C   0  0
    0.7923    0.5300   -2.4304 O   0  0
   -0.7150    1.5668   -1.1683 O   0  0
   -0.0127    1.0858    0.0080 C   0  0
   -0.7288    1.5792    1.2668 C   0  0
    0.7528    0.5681   -5.2554 C   0  0
   -3.6886   -0.0903   -9.6280 H   0  0
   -2.2101   -1.1070   -9.5514 H   0  0
   -2.5626   -0.1443  -11.0257 H   0  0
   -0.7964    0.9410   -9.6454 H   0  0
   -2.2747    1.9587   -9.7217 H   0  0
   -2.5268    2.8099   -2.8578 H   0  0
   -6.7865    4.2197   -4.7536 H   0  0
   -6.8596    3.1792   -6.2156 H   0  0
   -7.6321    4.8001   -6.2275 H   0  0
   -4.4260    6.7195   -6.2180 H   0  0
   -5.3703    6.2799   -4.7550 H   0  0
   -6.2161    6.8602   -6.2289 H   0  0
   -5.5378    3.8952   -8.1151 H   0  0
    1.0194    1.4662    0.0013 H   0  0
    0.0018   -0.0141    0.0024 H   0  0
   -1.7609    1.1988    1.2757 H   0  0
   -0.7440    2.6791    1.2739 H   0  0
   -0.1972    1.2151    2.1584 H   0  0
    1.3015    1.2540   -5.9176 H   0  0
    0.3155   -0.1947   -5.9164 H   0  0
    1.3564    0.1580   -4.4323 H   0  0
  1  2  1  0
  2  3  1  0
  3  4  1  0
  4  5  2  0
  4  6  1  0
  6 10  2  0
  6  7  1  0
  7  8  2  0
  7 22  1  0
  8  9  1  0
  8 17  1  0
  9 10  1  0
 10 11  1  0
 11 12  3  0
 12 13  1  0
 13 14  1  0
 13 15  1  0
 13 16  1  0
 17 18  2  0
 17 19  1  0
 19 20  1  0
 20 21  1  0
  1 23  1  0
  1 24  1  0
  1 25  1  0
  2 26  1  0
  2 27  1  0
  9 28  1  0
 14 29  1  0
 14 30  1  0
 14 31  1  0
 15 32  1  0
 15 33  1  0
 15 34  1  0
 16 35  1  0
 20 36  1  0
 20 37  1  0
 21 38  1  0
 21 39  1  0
 21 40  1  0
 22 41  1  0
 22 42  1  0
 22 43  1  0
M  END
> <Name>
ZINC05333328

> <reference>
BDB50039530

> <quality>
0.716

> <status>
decoy

$$$$
ZINC21770521
  SciTegic06061311253D

 47 47  0  0  0  0            999 V2000
   -0.7527    1.5927   -1.2315 C   0  0
   -0.0127    1.0858    0.0080 C   0  0
   -0.6816    1.5467    1.1837 O   0  0
   -0.1484    1.1818    2.3805 C   0  0
    0.9898    0.4001    2.4201 C   0  0
    1.5352    0.0275    3.6514 C   0  0
    0.9270    0.4472    4.8370 C   0  0
   -0.2083    1.2265    4.7906 C   0  0
   -0.7471    1.6016    3.5673 C   0  0
   -1.8628    2.3748    3.5268 O   0  0
   -2.4246    2.7692    4.7802 C   0  0
   -3.6662    3.6288    4.5346 C   0  0  1  0  0  0
   -4.3387    3.9473    5.8715 C   0  0
   -3.2560    4.9325    3.8467 C   0  0
    2.7515   -0.8074    3.6994 C   0  0
    3.2800   -1.1716    2.6667 O   0  0
    3.2764   -1.1659    4.8879 N   0  0
    4.4309   -1.9583    4.9334 N   0  0
    4.9557   -2.3169    6.1218 C   0  0
    5.9570   -3.0041    6.1613 O   0  0
    4.3705   -1.9135    7.2653 O   0  0
    4.9904   -2.3372    8.5081 C   0  0
    4.1907   -1.7866    9.6906 C   0  0
   -0.7679    2.6926   -1.2265 H   0  0
   -1.7848    1.2123   -1.2248 H   0  0
   -0.2383    1.2383   -2.1369 H   0  0
    0.0017   -0.0141    0.0023 H   0  0
    1.0194    1.4661    0.0013 H   0  0
    1.4658    0.0717    1.4844 H   0  0
    1.3545    0.1555    5.8076 H   0  0
   -0.6889    1.5522    5.7249 H   0  0
   -1.6837    3.3505    5.3487 H   0  0
   -2.7067    1.8739    5.3537 H   0  0
   -4.3703    3.0806    3.8914 H   0  0
   -3.6354    4.4958    6.5154 H   0  0
   -4.6342    3.0106    6.3668 H   0  0
   -5.2315    4.5653    5.6956 H   0  0
   -2.7726    4.7047    2.8852 H   0  0
   -2.5520    5.4816    4.4893 H   0  0
   -4.1483    5.5510    3.6698 H   0  0
    2.8288   -0.8573    5.7627 H   0  0
    4.8786   -2.2668    4.0586 H   0  0
    6.0210   -1.9554    8.5539 H   0  0
    5.0040   -3.4361    8.5553 H   0  0
    3.1600   -2.1683    9.6470 H   0  0
    4.1763   -0.6876    9.6449 H   0  0
    4.6598   -2.1072   10.6325 H   0  0
  1  2  1  0
  2  3  1  0
  3  4  1  0
  4  9  2  0
  4  5  1  0
  5  6  2  0
  6  7  1  0
  6 15  1  0
  7  8  2  0
  8  9  1  0
  9 10  1  0
 10 11  1  0
 11 12  1  0
 12 13  1  0
 12 14  1  0
 15 16  2  0
 15 17  1  0
 17 18  1  0
 18 19  1  0
 19 20  2  0
 19 21  1  0
 21 22  1  0
 22 23  1  0
  1 24  1  0
  1 25  1  0
  1 26  1  0
  2 27  1  0
  2 28  1  0
  5 29  1  0
  7 30  1  0
  8 31  1  0
 11 32  1  0
 11 33  1  0
 12 34  1  0
 13 35  1  0
 13 36  1  0
 13 37  1  0
 14 38  1  0
 14 39  1  0
 14 40  1  0
 17 41  1  0
 18 42  1  0
 22 43  1  0
 22 44  1  0
 23 45  1  0
 23 46  1  0
 23 47  1  0
M  END
> <Name>
ZINC21770521

> <reference>
BDB50039530

> <quality>
0.712

> <status>
decoy

$$$$
ZINC14952255
  SciTegic06061311253D

 47 48  0  0  0  0            999 V2000
   11.2790    2.8190    2.1614 C   0  0
   10.4873    1.5358    1.9017 C   0  0
    9.0438    1.8915    1.5403 C   0  0
    8.2521    0.6083    1.2806 C   0  0
    6.8699    0.9489    0.9344 N   0  0
    5.9828   -0.0287    0.6626 C   0  0
    6.3299   -1.1942    0.7046 O   0  0
    4.5977    0.3126    0.3158 C   0  0
    3.5682   -0.5247    0.0118 C   0  0
    2.3073    0.0035   -0.2951 C   0  0
    1.1016   -0.6787   -0.6382 C   0  0
    0.0121    0.0265   -0.8935 N   0  0
   -0.0021    1.3463   -0.8426 C   0  0
    1.0792    2.0353   -0.5318 N   0  0
    2.2102    1.4163   -0.2620 C   0  0
    3.8488    1.9275    0.1870 S   0  0
    1.0729   -2.0570   -0.7032 N   0  0
   -0.1974   -2.7538   -0.9201 C   0  0
    0.0479   -4.2637   -0.9508 C   0  0
   -1.2787   -4.9914   -1.1772 C   0  0
   -1.0496   -6.4016   -1.2059 O   0  0
   -2.2310   -7.1783   -1.4132 C   0  0
    3.7839   -2.0161    0.0069 C   0  0
   10.8193    3.3727    2.9933 H   0  0
   11.2719    3.4449    1.2569 H   0  0
   12.3170    2.5640    2.4213 H   0  0
   10.9475    0.9830    1.0695 H   0  0
   10.4944    0.9098    2.8062 H   0  0
    8.5829    2.4440    2.3723 H   0  0
    9.0346    2.5166    0.6352 H   0  0
    8.7124    0.0554    0.4485 H   0  0
    8.2592   -0.0176    2.1851 H   0  0
    6.5761    1.9355    0.8987 H   0  0
   -0.9364    1.8829   -1.0643 H   0  0
    1.9446   -2.5957   -0.5992 H   0  0
   -0.8925   -2.5124   -0.1024 H   0  0
   -0.6332   -2.4343   -1.8782 H   0  0
    0.7426   -4.5059   -1.7686 H   0  0
    0.4828   -4.5852    0.0071 H   0  0
   -1.9737   -4.7499   -0.3595 H   0  0
   -1.7146   -4.6719   -2.1353 H   0  0
   -2.6755   -6.8576   -2.3669 H   0  0
   -2.9339   -6.9355   -0.6027 H   0  0
   -2.0090   -8.2556   -1.4282 H   0  0
    4.1619   -2.2538    1.0122 H   0  0
    4.6101   -2.1834   -0.6998 H   0  0
    2.8847   -2.5942   -0.2523 H   0  0
  1  2  1  0
  2  3  1  0
  3  4  1  0
  4  5  1  0
  5  6  1  0
  6  7  2  0
  6  8  1  0
  8 16  1  0
  8  9  2  0
  9 10  1  0
  9 23  1  0
 10 15  1  0
 10 11  2  0
 11 12  1  0
 11 17  1  0
 12 13  2  0
 13 14  1  0
 14 15  2  0
 15 16  1  0
 17 18  1  0
 18 19  1  0
 19 20  1  0
 20 21  1  0
 21 22  1  0
  1 24  1  0
  1 25  1  0
  1 26  1  0
  2 27  1  0
  2 28  1  0
  3 29  1  0
  3 30  1  0
  4 31  1  0
  4 32  1  0
  5 33  1  0
 13 34  1  0
 17 35  1  0
 18 36  1  0
 18 37  1  0
 19 38  1  0
 19 39  1  0
 20 40  1  0
 20 41  1  0
 22 42  1  0
 22 43  1  0
 22 44  1  0
 23 45  1  0
 23 46  1  0
 23 47  1  0
M  END
> <Name>
ZINC14952255

> <reference>
BDB50039530

> <quality>
0.707

> <status>
decoy

$$$$
ZINC26447604
  SciTegic06061311253D

 52 53  0  0  1  0            999 V2000
    0.0996    2.8588   -0.0721 C   0  0
   -0.6611    2.6508    1.2121 C   0  0
   -2.0639    2.6442    1.3674 C   0  0
   -2.3259    2.4173    2.7074 C   0  0
   -1.1598    2.2968    3.3588 N   0  0
   -0.1205    2.4366    2.4616 C   0  0
    1.2593    2.3720    2.7708 C   0  0
    2.0855    2.5114    1.8921 O   0  0
    1.7028    2.1301    4.1906 C   0  0
    3.1636    1.9792    4.2283 N   0  0
    3.6730    2.1285    5.5981 C   0  0
    5.2028    2.1393    5.5749 C   0  0
    5.6594    3.2339    4.7777 O   0  0
    7.0821    3.3353    4.6900 C   0  0
    3.5751    0.6927    3.6508 C   0  0  2  0  0  0
    3.8686   -0.3216    4.7755 C   0  0
    5.0797   -1.1315    4.2498 C   0  0
    5.9278   -0.0518    3.5329 C   0  0
    4.8843    0.8643    2.8608 C   0  0
   -3.6944    2.3268    3.3319 C   0  0
   -3.0622    2.8392    0.3023 C   0  0
   -3.4887    1.8822   -0.3135 O   0  0
   -3.5028    4.0789    0.0105 O   0  0
   -4.4867    4.1960   -1.0508 C   0  0
    0.7467    1.9700   -0.1074 H   0  0
    0.7627    3.6989    0.1821 H   0  0
   -0.4990    3.0166   -0.9814 H   0  0
   -1.0562    2.1267    4.3694 H   0  0
    1.2302    1.2131    4.5723 H   0  0
    1.4066    2.9838    4.8179 H   0  0
    3.3223    1.2877    6.2146 H   0  0
    3.3066    3.0739    6.0247 H   0  0
    5.5844    2.2492    6.6007 H   0  0
    5.5708    1.1956    5.1459 H   0  0
    7.4565    2.3908    4.2683 H   0  0
    7.4710    3.4376    5.7139 H   0  0
    7.3889    4.1894    4.0684 H   0  0
    2.7615    0.3401    2.9999 H   0  0
    3.0046   -0.9865    4.9221 H   0  0
    4.1407    0.2072    5.7009 H   0  0
    5.6437   -1.5628    5.0900 H   0  0
    4.7466   -1.8936    3.5300 H   0  0
    6.5688   -0.5176    2.7699 H   0  0
    6.5141    0.5189    4.2682 H   0  0
    5.2187    1.9109    2.9129 H   0  0
    4.7337    0.5542    1.8162 H   0  0
   -4.1824    1.5454    2.7308 H   0  0
   -4.1612    3.2753    3.0279 H   0  0
   -3.7249    2.1411    4.4157 H   0  0
   -5.3381    3.5654   -0.7550 H   0  0
   -4.0306    3.7496   -1.9467 H   0  0
   -4.7958    5.2365   -1.2292 H   0  0
  1  2  1  0
  2  6  2  0
  2  3  1  0
  3  4  2  0
  3 21  1  0
  4  5  1  0
  4 20  1  0
  5  6  1  0
  6  7  1  0
  7  8  2  0
  7  9  1  0
  9 10  1  0
 10 11  1  0
 10 15  1  0
 11 12  1  0
 12 13  1  0
 13 14  1  0
 15 19  1  0
 15 16  1  0
 16 17  1  0
 17 18  1  0
 18 19  1  0
 21 22  2  0
 21 23  1  0
 23 24  1  0
  1 25  1  0
  1 26  1  0
  1 27  1  0
  5 28  1  0
  9 29  1  0
  9 30  1  0
 11 31  1  0
 11 32  1  0
 12 33  1  0
 12 34  1  0
 14 35  1  0
 14 36  1  0
 14 37  1  0
 15 38  1  0
 16 39  1  0
 16 40  1  0
 17 41  1  0
 17 42  1  0
 18 43  1  0
 18 44  1  0
 19 45  1  0
 19 46  1  0
 20 47  1  0
 20 48  1  0
 20 49  1  0
 24 50  1  0
 24 51  1  0
 24 52  1  0
M  END
> <Name>
ZINC26447604

> <reference>
BDB50039530

> <quality>
0.705

> <status>
decoy

$$$$
ZINC00308720
  SciTegic06061311253D

 37 37  0  0  0  0            999 V2000
    7.1363   -4.6668   -6.4728 C   0  0
    5.6987   -5.1755   -6.3485 C   0  0
    5.0661   -4.5957   -5.1096 C   0  0
    5.7022   -3.8494   -4.3966 O   0  0
    3.7932   -4.9068   -4.7942 N   0  0
    3.2274   -4.3883   -3.6863 C   0  0
    4.1257   -3.3345   -2.6795 S   0  0
    1.9546   -4.6995   -3.3709 N   0  5
    1.3290   -4.0728   -2.2872 C   0  0
    0.5364   -4.8136   -1.4228 C   0  0
   -0.0893   -4.1917   -0.3405 C   0  0
    0.0833   -2.8249   -0.1292 C   0  0
    0.8804   -2.0837   -0.9997 C   0  0
    1.4987   -2.7113   -2.0830 C   0  0
    1.0659   -0.6344   -0.7800 C   0  0
    1.7607    0.0109   -1.5391 O   0  0
    0.4645   -0.0287    0.2622 O   0  0
    0.6912    1.3972    0.4164 C   0  0
   -0.9338   -4.9815    0.5795 C   0  0
   -1.0837   -6.1726    0.3946 O   0  0
   -1.5374   -4.3806    1.6231 O   0  0
   -2.3518   -5.2183    2.4852 C   0  0
    7.7133   -4.9754   -5.5886 H   0  0
    7.1332   -3.5690   -6.5430 H   0  0
    7.5987   -5.0896   -7.3769 H   0  0
    5.7018   -6.2733   -6.2783 H   0  0
    5.1224   -4.8662   -7.2329 H   0  0
    3.2528   -5.5408   -5.3999 H   0  0
    0.4006   -5.8923   -1.5902 H   0  0
   -0.4084   -2.3323    0.7226 H   0  0
    2.1211   -2.1254   -2.7753 H   0  0
    0.3589    1.8670   -0.5211 H   0  0
    1.7802    1.5312    0.4942 H   0  0
    0.1680    1.8176    1.2879 H   0  0
   -1.6917   -6.0169    2.8547 H   0  0
   -3.1127   -5.6805    1.8392 H   0  0
   -2.8099   -4.6562    3.3123 H   0  0
  1  2  1  0
  2  3  1  0
  3  4  2  0
  3  5  1  0
  5  6  1  0
  6  7  2  0
  6  8  1  0
  8  9  1  0
  9 14  2  0
  9 10  1  0
 10 11  2  0
 11 12  1  0
 11 19  1  0
 12 13  2  0
 13 14  1  0
 13 15  1  0
 15 16  2  0
 15 17  1  0
 17 18  1  0
 19 20  2  0
 19 21  1  0
 21 22  1  0
  1 23  1  0
  1 24  1  0
  1 25  1  0
  2 26  1  0
  2 27  1  0
  5 28  1  0
 10 29  1  0
 12 30  1  0
 14 31  1  0
 18 32  1  0
 18 33  1  0
 18 34  1  0
 22 35  1  0
 22 36  1  0
 22 37  1  0
M  CHG  1   8  -1
M  END
> <Name>
ZINC00308720

> <reference>
BDB50039530

> <quality>
0.704

> <status>
decoy

$$$$
ZINC29313027
  SciTegic06061311253D

 47 48  0  0  0  0            999 V2000
   12.5667    0.3051    7.0635 C   0  0
   12.1066    0.9871    5.9332 C   0  0
   10.7814    0.6408    5.7655 C   0  0
   10.4539   -0.2407    6.7711 N   0  0
   11.5405   -0.4351    7.5480 C   0  0
    9.8879    1.1188    4.7070 C   0  0
   10.2990    1.9017    3.8715 O   0  0
    8.6107    0.6912    4.6591 N   0  0
    7.7889    1.1309    3.6856 C   0  0
    8.1986    1.9111    2.8529 O   0  0
    6.3607    0.6528    3.6321 C   0  0
    5.6872    1.2657    2.5011 O   0  0
    4.3985    0.9420    2.3107 C   0  0
    3.8514    0.1720    3.0642 O   0  0
    3.6341    1.5389    1.1573 C   0  0
    2.1988    1.0094    1.1682 C   0  0
    1.4227    1.6154   -0.0028 C   0  0
   -0.0127    1.0858    0.0080 C   0  0  1  0  0  0
   -0.7288    1.5792    1.2668 C   0  0
   -2.1642    1.0497    1.2777 C   0  0
   -2.9042    1.5565    0.0381 C   0  0
   -2.1881    1.0631   -1.2207 C   0  0
   -0.7527    1.5927   -1.2315 C   0  0
   13.5814    0.3597    7.4846 H   0  0
   12.6901    1.6700    5.2982 H   0  0
    9.5321   -0.6793    6.9080 H   0  0
   11.5856   -1.0888    8.4316 H   0  0
    8.2627    0.0284    5.3665 H   0  0
    6.3441   -0.4413    3.5192 H   0  0
    5.8439    0.9334    4.5617 H   0  0
    3.6209    2.6346    1.2538 H   0  0
    4.1198    1.2600    0.2106 H   0  0
    2.2113   -0.0862    1.0713 H   0  0
    1.7111    1.2883    2.1139 H   0  0
    1.4094    2.7111    0.0938 H   0  0
    1.9085    1.3366   -0.9495 H   0  0
    0.0022   -0.0141    0.0019 H   0  0
   -0.1972    1.2144    2.1580 H   0  0
   -0.7445    2.6791    1.2738 H   0  0
   -2.6801    1.4042    2.1822 H   0  0
   -2.1495   -0.0502    1.2712 H   0  0
   -3.9360    1.1754    0.0455 H   0  0
   -2.9195    2.6564    0.0430 H   0  0
   -2.7192    1.4272   -2.1125 H   0  0
   -2.1726   -0.0368   -1.2266 H   0  0
   -0.2388    1.2384   -2.1372 H   0  0
   -0.7682    2.6926   -1.2252 H   0  0
  1  5  2  0
  1  2  1  0
  2  3  2  0
  3  4  1  0
  3  6  1  0
  4  5  1  0
  6  7  2  0
  6  8  1  0
  8  9  1  0
  9 10  2  0
  9 11  1  0
 11 12  1  0
 12 13  1  0
 13 14  2  0
 13 15  1  0
 15 16  1  0
 16 17  1  0
 17 18  1  0
 18 23  1  0
 18 19  1  0
 19 20  1  0
 20 21  1  0
 21 22  1  0
 22 23  1  0
  1 24  1  0
  2 25  1  0
  4 26  1  0
  5 27  1  0
  8 28  1  0
 11 29  1  0
 11 30  1  0
 15 31  1  0
 15 32  1  0
 16 33  1  0
 16 34  1  0
 17 35  1  0
 17 36  1  0
 18 37  1  0
 19 38  1  0
 19 39  1  0
 20 40  1  0
 20 41  1  0
 21 42  1  0
 21 43  1  0
 22 44  1  0
 22 45  1  0
 23 46  1  0
 23 47  1  0
M  END
> <Name>
ZINC29313027

> <reference>
BDB50039530

> <quality>
0.704

> <status>
decoy

$$$$
ZINC28795610
  SciTegic06061311253D

 52 53  0  0  1  0            999 V2000
   -2.5452   -0.0348    1.2632 C   0  0
   -2.4820    0.8526    0.0185 C   0  0  2  0  0  0
   -1.1873    1.6238    0.0165 C   0  0
   -1.2037    2.8365    0.0232 O   0  0
   -0.0111    0.9658    0.0074 N   0  0
    1.2475    1.7155   -0.0006 C   0  0
    2.4238    0.7372   -0.0171 C   0  0
    3.7185    1.5084   -0.0253 C   0  0
    4.3018    1.7273    1.1093 C   0  0
    5.5874    2.4863    1.2612 C   0  0
    6.3054    2.5820   -0.0868 C   0  0
    5.3003    3.0688   -1.1383 C   0  0
    4.2544    1.9696   -1.3490 C   0  0
   -3.6084    1.7894    0.0289 N   0  0
   -4.8537    1.3943   -0.4806 C   0  0
   -5.0183    0.1189   -0.9998 C   0  0
   -6.2471   -0.2721   -1.4976 C   0  0
   -7.3148    0.6130   -1.4888 C   0  0
   -7.1535    1.8913   -0.9754 C   0  0
   -5.9250    2.2843   -0.4710 C   0  0
   -5.7650    3.5373    0.0332 O   0  0
   -6.9068    4.3963    0.0107 C   0  0
   -8.5210    0.2273   -1.9844 O   0  0
   -8.6162   -1.1031   -2.4973 C   0  0
   -2.4916    0.5926    2.1651 H   0  0
   -1.7000   -0.7387    1.2562 H   0  0
   -3.4901   -0.5980    1.2653 H   0  0
   -2.5359    0.2243   -0.8828 H   0  0
    0.0029   -0.0641    0.0061 H   0  0
    1.2890    2.3531   -0.8960 H   0  0
    1.3069    2.3440    0.9002 H   0  0
    2.3831    0.0995    0.8783 H   0  0
    2.3667    0.1085   -0.9179 H   0  0
    3.8255    1.3324    2.0188 H   0  0
    6.2355    1.9678    1.9831 H   0  0
    5.3717    3.4992    1.6320 H   0  0
    7.1369    3.2982   -0.0123 H   0  0
    6.6880    1.5914   -0.3737 H   0  0
    5.8223    3.2676   -2.0859 H   0  0
    4.8064    3.9846   -0.7814 H   0  0
    3.4296    2.3638   -1.9608 H   0  0
    4.7184    1.1200   -1.8713 H   0  0
   -3.4856    2.7382    0.4104 H   0  0
   -4.1706   -0.5819   -1.0155 H   0  0
   -6.3783   -1.2869   -1.9014 H   0  0
   -8.0009    2.5926   -0.9688 H   0  0
   -7.6975    3.8744    0.5696 H   0  0
   -7.2238    4.4618   -1.0406 H   0  0
   -6.6999    5.3902    0.4342 H   0  0
   -8.3267   -1.7732   -1.6745 H   0  0
   -7.8527   -1.1863   -3.2848 H   0  0
   -9.6199   -1.3410   -2.8794 H   0  0
  1  2  1  0
  2  3  1  0
  2 14  1  0
  3  4  2  0
  3  5  1  0
  5  6  1  0
  6  7  1  0
  7  8  1  0
  8 13  1  0
  8  9  2  0
  9 10  1  0
 10 11  1  0
 11 12  1  0
 12 13  1  0
 14 15  1  0
 15 20  2  0
 15 16  1  0
 16 17  2  0
 17 18  1  0
 18 19  2  0
 18 23  1  0
 19 20  1  0
 20 21  1  0
 21 22  1  0
 23 24  1  0
  1 25  1  0
  1 26  1  0
  1 27  1  0
  2 28  1  0
  5 29  1  0
  6 30  1  0
  6 31  1  0
  7 32  1  0
  7 33  1  0
  9 34  1  0
 10 35  1  0
 10 36  1  0
 11 37  1  0
 11 38  1  0
 12 39  1  0
 12 40  1  0
 13 41  1  0
 13 42  1  0
 14 43  1  0
 16 44  1  0
 17 45  1  0
 19 46  1  0
 22 47  1  0
 22 48  1  0
 22 49  1  0
 24 50  1  0
 24 51  1  0
 24 52  1  0
M  END
> <Name>
ZINC28795610

> <reference>
BDB50039530

> <quality>
0.699

> <status>
decoy

$$$$
ZINC28995978
  SciTegic06061311253D

 45 45  0  0  0  0            999 V2000
   -7.2736   -3.9457   -0.9720 C   0  0
   -6.2058   -4.8520   -0.3561 C   0  0  2  0  0  0
   -6.1791   -6.1880   -1.1013 C   0  0
   -6.5334   -5.0970    1.1183 C   0  0
   -4.8578   -4.1876   -0.4674 C   0  0
   -4.7607   -3.0965   -0.9882 O   0  0
   -3.7602   -4.8058    0.0117 N   0  0
   -2.5269   -4.1440    0.0087 C   0  0
   -1.3529   -4.8631   -0.1824 C   0  0
   -0.1323   -4.2146   -0.1862 C   0  0
   -0.0712   -2.8477   -0.0056 C   0  0
   -1.2443   -2.1168    0.1921 C   0  0
   -2.4765   -2.7718    0.1959 C   0  0
   -1.1818   -0.6540    0.3905 C   0  0
   -2.2041   -0.0195    0.5572 O   0  0
    0.0089   -0.0241    0.3864 O   0  0
   -0.0054    1.4139    0.5872 C   0  0
    1.4062    1.9402    0.5517 C   0  0
    2.3331    1.1783    0.3746 O   0  0
    1.6387    3.2574    0.7168 N   0  0
    3.0110    3.7690    0.6823 C   0  0
    2.9961    5.2615    0.8907 C   0  0
    3.7091    5.7959    1.8510 C   0  0
   -8.2581   -4.4297   -0.8909 H   0  0
   -7.0389   -3.7688   -2.0320 H   0  0
   -7.2933   -2.9850   -0.4367 H   0  0
   -5.9435   -6.0131   -2.1614 H   0  0
   -7.1626   -6.6740   -1.0203 H   0  0
   -5.4116   -6.8401   -0.6590 H   0  0
   -7.5171   -5.5823    1.2007 H   0  0
   -6.5526   -4.1371    1.6551 H   0  0
   -5.7661   -5.7486    1.5618 H   0  0
   -3.8290   -5.7652    0.3800 H   0  0
   -1.3953   -5.9522   -0.3311 H   0  0
    0.7936   -4.7899   -0.3337 H   0  0
    0.9015   -2.3342   -0.0174 H   0  0
   -3.4046   -2.2009    0.3470 H   0  0
   -0.4574    1.6445    1.5632 H   0  0
   -0.5938    1.8899   -0.2111 H   0  0
    0.8515    3.9044    0.8672 H   0  0
    3.4644    3.5403   -0.2935 H   0  0
    3.5998    3.2937    1.4806 H   0  0
    2.3865    5.9021    0.2365 H   0  0
    4.3187    5.1553    2.5052 H   0  0
    3.6982    6.8853    2.0031 H   0  0
  1  2  1  0
  2  3  1  0
  2  4  1  0
  2  5  1  0
  5  6  2  0
  5  7  1  0
  7  8  1  0
  8 13  2  0
  8  9  1  0
  9 10  2  0
 10 11  1  0
 11 12  2  0
 12 13  1  0
 12 14  1  0
 14 15  2  0
 14 16  1  0
 16 17  1  0
 17 18  1  0
 18 19  2  0
 18 20  1  0
 20 21  1  0
 21 22  1  0
 22 23  2  0
  1 24  1  0
  1 25  1  0
  1 26  1  0
  3 27  1  0
  3 28  1  0
  3 29  1  0
  4 30  1  0
  4 31  1  0
  4 32  1  0
  7 33  1  0
  9 34  1  0
 10 35  1  0
 11 36  1  0
 13 37  1  0
 17 38  1  0
 17 39  1  0
 20 40  1  0
 21 41  1  0
 21 42  1  0
 22 43  1  0
 23 44  1  0
 23 45  1  0
M  END
> <Name>
ZINC28995978

> <reference>
BDB50039530

> <quality>
0.699

> <status>
decoy

$$$$
ZINC28481005
  SciTegic06061311253D

 50 51  0  0  0  0            999 V2000
    3.2767    1.6565    1.4034 C   0  0
    2.2056    0.9395    0.7350 O   0  0
    1.0247    1.5754    0.6173 C   0  0
    0.8928    2.6988    1.0610 O   0  0
   -0.0111    0.9658    0.0074 N   0  0
   -1.2586    1.5873   -0.0358 C   0  0
   -1.3409    2.9712   -0.1533 C   0  0
   -2.5710    3.5875   -0.2020 C   0  0
   -3.7377    2.8223   -0.1221 C   0  0
   -3.6514    1.4330    0.0016 C   0  0
   -2.4182    0.8226    0.0444 C   0  0
   -5.0581    3.4800   -0.1688 C   0  0
   -6.0723    2.8130   -0.0996 O   0  0
   -5.1397    4.8200   -0.2881 N   0  0
   -6.4503    5.4729   -0.3345 C   0  0
   -6.2623    6.9851   -0.4717 C   0  0
   -7.6311    7.6669   -0.5201 C   0  0
   -7.4555    9.0793   -0.6483 O   0  0
   -8.6795    9.8146   -0.7028 C   0  0  2  0  0  0
   -9.1297    9.9483   -2.1590 C   0  0
  -10.4403   10.7356   -2.2174 C   0  0
  -10.2260   12.1278   -1.6199 C   0  0
   -9.7758   11.9941   -0.1638 C   0  0
   -8.4652   11.2068   -0.1054 C   0  0
    2.8993    1.9152    2.4037 H   0  0
    3.4196    2.5925    0.8435 H   0  0
    4.2070    1.0722    1.4599 H   0  0
    0.1188    0.0409   -0.4268 H   0  0
   -0.4221    3.5736   -0.2073 H   0  0
   -2.6355    4.6809   -0.3037 H   0  0
   -4.5678    0.8278    0.0647 H   0  0
   -2.3495   -0.2709    0.1421 H   0  0
   -4.2805    5.3851   -0.3467 H   0  0
   -7.0181    5.0948   -1.1974 H   0  0
   -7.0025    5.2554    0.5916 H   0  0
   -5.6949    7.3640    0.3911 H   0  0
   -5.7112    7.2047   -1.3980 H   0  0
   -8.1989    7.2887   -1.3830 H   0  0
   -8.1833    7.4494    0.4061 H   0  0
   -9.4521    9.2836   -0.1274 H   0  0
   -9.2843    8.9479   -2.5895 H   0  0
   -8.3574   10.4798   -2.7344 H   0  0
  -10.7638   10.8323   -3.2643 H   0  0
  -11.2137   10.2056   -1.6421 H   0  0
  -11.1678   12.6947   -1.6611 H   0  0
   -9.4530   12.6587   -2.1949 H   0  0
   -9.6211   12.9949    0.2657 H   0  0
  -10.5477   11.4630    0.4125 H   0  0
   -8.1421   11.1109    0.9417 H   0  0
   -7.6928   11.7388   -0.6803 H   0  0
  1  2  1  0
  2  3  1  0
  3  4  2  0
  3  5  1  0
  5  6  1  0
  6 11  2  0
  6  7  1  0
  7  8  2  0
  8  9  1  0
  9 10  2  0
  9 12  1  0
 10 11  1  0
 12 13  2  0
 12 14  1  0
 14 15  1  0
 15 16  1  0
 16 17  1  0
 17 18  1  0
 18 19  1  0
 19 24  1  0
 19 20  1  0
 20 21  1  0
 21 22  1  0
 22 23  1  0
 23 24  1  0
  1 25  1  0
  1 26  1  0
  1 27  1  0
  5 28  1  0
  7 29  1  0
  8 30  1  0
 10 31  1  0
 11 32  1  0
 14 33  1  0
 15 34  1  0
 15 35  1  0
 16 36  1  0
 16 37  1  0
 17 38  1  0
 17 39  1  0
 19 40  1  0
 20 41  1  0
 20 42  1  0
 21 43  1  0
 21 44  1  0
 22 45  1  0
 22 46  1  0
 23 47  1  0
 23 48  1  0
 24 49  1  0
 24 50  1  0
M  END
> <Name>
ZINC28481005

> <reference>
BDB50039530

> <quality>
0.697

> <status>
decoy

$$$$
ZINC26976299
  SciTegic06061311253D

 44 44  0  0  1  0            999 V2000
   -2.8486   -2.5886    0.1411 C   0  0
   -1.4133   -2.0590    0.1302 C   0  0
   -1.4333   -0.5336    0.0129 C   0  0
    0.0021   -0.0041    0.0020 C   0  0  2  0  0  0
   -0.0187    1.5258    0.0104 C   0  0
    0.6878   -0.4765   -1.2033 N   0  0
    2.0310   -0.5870   -1.2149 C   0  0
    2.6720   -0.2952   -0.2276 O   0  0
    2.7363   -1.0730   -2.4548 C   0  0  2  0  0  0
    2.6485   -2.5988   -2.5266 C   0  0
    4.4781   -0.5697   -2.3961 S   0  0
    5.1204   -1.0739   -3.9575 C   0  0
    4.5094   -1.6828   -4.9556 N   0  0
    5.2065   -1.9847   -6.1026 N   0  0
    6.4847   -1.6743   -6.1946 C   0  0
    6.7748   -0.9041   -4.6093 S   0  0
    7.3698   -1.8890   -7.2447 N   0  0
    6.9082   -2.5488   -8.4685 C   0  0
    8.0705   -2.6607   -9.4571 C   0  0
    7.5884   -3.3497  -10.7353 C   0  0
   -3.3541   -2.3000   -0.7923 H   0  0
   -3.3911   -2.1628    0.9980 H   0  0
   -2.8349   -3.6853    0.2254 H   0  0
   -0.9087   -2.3478    1.0640 H   0  0
   -0.8707   -2.4848   -0.7267 H   0  0
   -1.9374   -0.2441   -0.9209 H   0  0
   -1.9746   -0.1059    0.8697 H   0  0
    0.5342   -0.3686    0.8931 H   0  0
   -0.5331    1.8816    0.9153 H   0  0
   -0.5503    1.8913   -0.8806 H   0  0
    1.0130    1.9072    0.0026 H   0  0
    0.1434   -0.7242   -2.0419 H   0  0
    2.2581   -0.6360   -3.3438 H   0  0
    1.5926   -2.9051   -2.5624 H   0  0
    3.1267   -3.0368   -1.6381 H   0  0
    3.1632   -2.9542   -3.4315 H   0  0
    8.3502   -1.5842   -7.1624 H   0  0
    6.5366   -3.5551   -8.2249 H   0  0
    6.0981   -1.9584   -8.9215 H   0  0
    8.8812   -3.2519   -9.0062 H   0  0
    8.4424   -1.6547   -9.7014 H   0  0
    6.7784   -2.7592  -11.1882 H   0  0
    7.2162   -4.3560  -10.4926 H   0  0
    8.4236   -3.4305  -11.4465 H   0  0
  1  2  1  0
  2  3  1  0
  3  4  1  0
  4  5  1  0
  4  6  1  0
  6  7  1  0
  7  8  2  0
  7  9  1  0
  9 10  1  0
  9 11  1  0
 11 12  1  0
 12 16  1  0
 12 13  2  0
 13 14  1  0
 14 15  2  0
 15 16  1  0
 15 17  1  0
 17 18  1  0
 18 19  1  0
 19 20  1  0
  1 21  1  0
  1 22  1  0
  1 23  1  0
  2 24  1  0
  2 25  1  0
  3 26  1  0
  3 27  1  0
  4 28  1  0
  5 29  1  0
  5 30  1  0
  5 31  1  0
  6 32  1  0
  9 33  1  0
 10 34  1  0
 10 35  1  0
 10 36  1  0
 17 37  1  0
 18 38  1  0
 18 39  1  0
 19 40  1  0
 19 41  1  0
 20 42  1  0
 20 43  1  0
 20 44  1  0
M  END
> <Name>
ZINC26976299

> <reference>
BDB50039530

> <quality>
0.697

> <status>
decoy

$$$$
ZINC05690398
  SciTegic06061311253D

 51 51  0  0  1  0            999 V2000
    5.1629    5.1214   -4.1368 C   0  0
    4.2771    4.1344   -4.8997 C   0  0
    3.0508    3.7893   -4.0524 C   0  0
    2.1650    2.8023   -4.8153 C   0  0
    0.0363    1.5880   -4.4912 C   0  0
    0.2249    1.0763   -5.6732 C   0  0
   -0.6778    0.0935   -6.3528 C   0  0  1  0  0  0
   -2.0763    0.1192   -5.7309 C   0  0  1  0  0  0
   -1.9118    0.1204   -4.2232 C   0  0
   -2.3665   -0.7627   -3.5365 O   0  5
   -1.1504    1.2814   -3.6204 C   0  0
   -1.8369    1.7342   -2.3575 C   0  0
   -1.4778    1.3044   -1.2877 O   0  0
   -2.9715    2.7234   -2.4298 C   0  0
   -3.4872    3.0119   -1.0185 C   0  0
   -4.6391    4.0162   -1.0919 C   0  0
   -2.8057    1.3641   -6.1659 C   0  0
   -2.5666    2.4218   -5.6329 O   0  0
   -3.7211    1.2979   -7.1454 O   0  0
   -4.3843    2.5363   -7.5127 C   0  0
   -0.7806    0.4476   -7.8377 C   0  0
   -0.0896   -1.3118   -6.2110 C   0  0
    0.9816    2.5016   -3.9374 N   0  0
    5.4887    4.6668   -3.1896 H   0  0
    4.5939    6.0389   -3.9258 H   0  0
    6.0448    5.3699   -4.7455 H   0  0
    3.9515    4.5899   -5.8465 H   0  0
    4.8460    3.2169   -5.1108 H   0  0
    3.3757    3.3333   -3.1055 H   0  0
    2.4800    4.7056   -3.8413 H   0  0
    1.8239    3.2586   -5.7563 H   0  0
    2.7243    1.8765   -5.0156 H   0  0
    1.1252    1.3932   -6.2201 H   0  0
   -2.6580   -0.7566   -6.0543 H   0  0
   -2.6148    3.6579   -2.8874 H   0  0
   -3.7863    2.3046   -3.0386 H   0  0
   -3.8445    2.0778   -0.5604 H   0  0
   -2.6739    3.4319   -0.4084 H   0  0
   -5.4539    3.5974   -1.7007 H   0  0
   -4.2833    4.9510   -1.5497 H   0  0
   -5.0104    4.2241   -0.0775 H   0  0
   -3.5895    3.2396   -7.8021 H   0  0
   -4.8569    2.9186   -6.5959 H   0  0
   -5.1185    2.4001   -8.3204 H   0  0
    0.2177    0.4060   -8.2977 H   0  0
   -1.1939    1.4610   -7.9484 H   0  0
   -1.4432   -0.2726   -8.3400 H   0  0
   -0.0032   -1.5708   -5.1454 H   0  0
    0.9055   -1.3451   -6.6787 H   0  0
   -0.7504   -2.0364   -6.7093 H   0  0
    0.8625    2.9239   -3.0055 H   0  0
  1  2  1  0
  2  3  1  0
  3  4  1  0
  4 23  1  0
  5  6  2  0
  5 23  1  0
  5 11  1  0
  6  7  1  0
  7  8  1  0
  7 21  1  0
  7 22  1  0
  8  9  1  0
  8 17  1  0
  9 11  2  0
  9 10  1  0
 11 12  1  0
 12 14  1  0
 12 13  2  0
 14 15  1  0
 15 16  1  0
 17 18  2  0
 17 19  1  0
 19 20  1  0
  1 24  1  0
  1 25  1  0
  1 26  1  0
  2 27  1  0
  2 28  1  0
  3 29  1  0
  3 30  1  0
  4 31  1  0
  4 32  1  0
  6 33  1  0
  8 34  1  0
 14 35  1  0
 14 36  1  0
 15 37  1  0
 15 38  1  0
 16 39  1  0
 16 40  1  0
 16 41  1  0
 20 42  1  0
 20 43  1  0
 20 44  1  0
 21 45  1  0
 21 46  1  0
 21 47  1  0
 22 48  1  0
 22 49  1  0
 22 50  1  0
 23 51  1  0
M  CHG  1  10  -1
M  END
> <Name>
ZINC05690398

> <reference>
BDB50039530

> <quality>
0.697

> <status>
decoy

$$$$
ZINC14333052
  SciTegic06061311253D

 36 37  0  0  0  0            999 V2000
    1.9404  -10.0709    1.2542 C   0  0
    0.6955   -9.3747    1.1671 O   0  0
   -0.0178   -9.6092   -0.0487 C   0  0
   -1.3273   -8.8182   -0.0325 C   0  0
   -1.0311   -7.3834   -0.0275 N   0  0
   -2.0379   -6.4875   -0.0135 C   0  0
   -3.1891   -6.8691   -0.0050 O   0  0
   -1.7332   -5.0117   -0.0084 C   0  0
   -3.2824   -4.0759    0.0108 S   0  0
   -2.6471   -2.4324    0.0138 C   0  0
   -3.3821   -1.2976    0.0266 N   0  5
   -2.4702   -0.2299    0.0239 N   0  0
   -1.2630   -0.7576    0.0100 C   0  0
   -1.3763   -2.0966   -0.0015 N   0  0
    0.0021   -0.0041    0.0020 C   0  0
   -0.0162    1.3427    0.0094 C   0  0
    1.2429    2.0927    0.0014 C   0  0
    1.4430    3.4630    0.0012 C   0  0
    2.7352    3.9343   -0.0026 C   0  0
    3.7660    3.0494   -0.0177 C   0  0
    2.9191    1.4781   -0.0185 S   0  0
    2.5566   -9.7567    0.3989 H   0  0
    1.7272  -11.1453    1.1533 H   0  0
    2.4547   -9.8621    2.2039 H   0  0
   -0.2397  -10.6824   -0.1438 H   0  0
    0.5955   -9.2846   -0.9022 H   0  0
   -1.9173   -9.0672   -0.9269 H   0  0
   -1.9018   -9.0764    0.8693 H   0  0
   -0.0534   -7.0593   -0.0347 H   0  0
   -1.1436   -4.7619    0.8860 H   0  0
   -1.1597   -4.7514   -0.9103 H   0  0
    0.9621   -0.5411   -0.0100 H   0  0
   -0.9762    1.8797    0.0214 H   0  0
    0.5898    4.1573    0.0040 H   0  0
    2.9320    5.0165    0.0065 H   0  0
    4.8475    3.2502   -0.0271 H   0  0
  1  2  1  0
  2  3  1  0
  3  4  1  0
  4  5  1  0
  5  6  1  0
  6  7  2  0
  6  8  1  0
  8  9  1  0
  9 10  1  0
 10 14  2  0
 10 11  1  0
 11 12  1  0
 12 13  2  0
 13 14  1  0
 13 15  1  0
 15 16  2  0
 16 17  1  0
 17 21  1  0
 17 18  2  0
 18 19  1  0
 19 20  2  0
 20 21  1  0
  1 22  1  0
  1 23  1  0
  1 24  1  0
  3 25  1  0
  3 26  1  0
  4 27  1  0
  4 28  1  0
  5 29  1  0
  8 30  1  0
  8 31  1  0
 15 32  1  0
 16 33  1  0
 18 34  1  0
 19 35  1  0
 20 36  1  0
M  CHG  1  11  -1
M  END
> <Name>
ZINC14333052

> <reference>
BDB50039530

> <quality>
0.697

> <status>
decoy

$$$$
ZINC20161344
  SciTegic06061311253D

 32 33  0  0  0  0            999 V2000
    7.6259    5.8833   -0.0392 C   0  0
    6.3089    5.8882   -0.0266 C   0  0
    5.6262    4.7158   -0.0263 O   0  0
    4.1995    4.7960   -0.0123 C   0  0
    3.6094    3.3844   -0.0142 C   0  0
    1.7983    3.4861    0.0036 S   0  0
    1.2768    1.8030   -0.0004 C   0  0
   -0.0165    1.3632    0.0095 N   0  0
    0.0021   -0.0041    0.0020 C   0  0
    1.2544   -0.3921   -0.0120 N   0  0
    2.0622    0.7526   -0.0136 N   0  0
   -1.1087   -0.8345    0.0082 N   0  0
   -0.9433   -2.2257   -0.0009 N   0  0
   -1.9856   -3.0049    0.0049 C   0  0
   -1.8126   -4.4608   -0.0046 C   0  0
   -2.8146   -5.3873    0.0000 C   0  0
   -2.1965   -6.6520   -0.0127 C   0  0
   -0.8647   -6.4422   -0.0243 C   0  0
   -0.6359   -5.1183   -0.0252 O   0  0
    8.1723    4.9287   -0.0495 H   0  0
    8.1794    6.8339   -0.0394 H   0  0
    5.7625    6.8428   -0.0163 H   0  0
    3.8709    5.3290    0.8921 H   0  0
    3.8528    5.3387   -0.9041 H   0  0
    3.9372    2.8510   -0.9186 H   0  0
    3.9540    2.8404    0.8776 H   0  0
    1.5861   -1.3672   -0.0204 H   0  0
   -2.0552   -0.4284    0.0195 H   0  0
   -2.9964   -2.5712    0.0169 H   0  0
   -3.8958   -5.1850    0.0114 H   0  0
   -2.7044   -7.6277   -0.0131 H   0  0
   -0.0927   -7.2258   -0.0318 H   0  0
  1  2  2  0
  2  3  1  0
  3  4  1  0
  4  5  1  0
  5  6  1  0
  6  7  1  0
  7 11  2  0
  7  8  1  0
  8  9  2  0
  9 10  1  0
  9 12  1  0
 10 11  1  0
 12 13  1  0
 13 14  2  0
 14 15  1  0
 15 19  1  0
 15 16  2  0
 16 17  1  0
 17 18  2  0
 18 19  1  0
  1 20  1  0
  1 21  1  0
  2 22  1  0
  4 23  1  0
  4 24  1  0
  5 25  1  0
  5 26  1  0
 10 27  1  0
 12 28  1  0
 14 29  1  0
 16 30  1  0
 17 31  1  0
 18 32  1  0
M  END
> <Name>
ZINC20161344

> <reference>
BDB50039530

> <quality>
0.696

> <status>
decoy

$$$$
ZINC05736875
  SciTegic06061311253D

 48 48  0  0  1  0            999 V2000
   -5.4741    1.6526   -1.8667 C   0  0
   -4.6102    1.1551   -3.0274 C   0  0
   -3.2424    1.6051   -2.8401 O   0  0
   -2.3504    1.2505   -3.7784 C   0  0
   -2.7009    0.5861   -4.7248 O   0  0
   -0.9118    1.6810   -3.6513 C   0  0  1  0  0  0
   -0.3250    1.1223   -2.3535 C   0  0
   -0.1250    1.1567   -4.8249 C   0  0
    0.5485    1.9635   -5.5557 N   0  0
    0.6602    3.3117   -5.1914 N   0  0
    1.4482    4.1397   -5.9054 C   0  0
    2.0608    3.7175   -6.8635 O   0  0
    1.5684    5.5898   -5.5136 C   0  0
    2.4763    6.2721   -6.4389 N   0  0
    2.7464    7.6328   -6.2763 C   0  0
    2.1548    8.3408   -5.2375 C   0  0
    2.4244    9.6857   -5.0793 C   0  0
    3.2825   10.3281   -5.9532 C   0  0
    3.8729    9.6266   -6.9881 C   0  0
    3.6114    8.2800   -7.1492 C   0  0
    4.2602    7.5148   -8.2738 C   0  0
    3.5751   11.7959   -5.7769 C   0  0
   -0.1312   -0.3174   -5.1381 C   0  0
   -5.4514    2.7519   -1.8363 H   0  0
   -5.0835    1.2521   -0.9196 H   0  0
   -6.5105    1.3121   -2.0079 H   0  0
   -4.6332    0.0557   -3.0568 H   0  0
   -5.0007    1.5556   -3.9745 H   0  0
   -0.8579    2.7796   -3.6350 H   0  0
   -0.3782    0.0237   -2.3689 H   0  0
   -0.8985    1.5046   -1.4962 H   0  0
    0.7251    1.4362   -2.2601 H   0  0
    0.1400    3.6701   -4.3778 H   0  0
    0.5771    6.0647   -5.5564 H   0  0
    1.9660    5.6626   -4.4905 H   0  0
    2.9155    5.7484   -7.2094 H   0  0
    1.4724    7.8305   -4.5419 H   0  0
    1.9561   10.2469   -4.2572 H   0  0
    4.5516   10.1415   -7.6839 H   0  0
    3.4248    7.0799   -8.8421 H   0  0
    4.7885    6.6828   -7.7852 H   0  0
    4.9253    8.1249   -8.9027 H   0  0
    3.9606   11.8898   -4.7510 H   0  0
    2.5920   12.2888   -5.8015 H   0  0
    4.2693   12.2040   -6.5262 H   0  0
   -1.1940   -0.5747   -5.2575 H   0  0
    0.2126   -0.8026   -4.2127 H   0  0
    0.4736   -0.5972   -6.0133 H   0  0
  1  2  1  0
  2  3  1  0
  3  4  1  0
  4  5  2  0
  4  6  1  0
  6  7  1  0
  6  8  1  0
  8  9  2  0
  8 23  1  0
  9 10  1  0
 10 11  1  0
 11 12  2  0
 11 13  1  0
 13 14  1  0
 14 15  1  0
 15 20  2  0
 15 16  1  0
 16 17  2  0
 17 18  1  0
 18 19  2  0
 18 22  1  0
 19 20  1  0
 20 21  1  0
  1 24  1  0
  1 25  1  0
  1 26  1  0
  2 27  1  0
  2 28  1  0
  6 29  1  0
  7 30  1  0
  7 31  1  0
  7 32  1  0
 10 33  1  0
 13 34  1  0
 13 35  1  0
 14 36  1  0
 16 37  1  0
 17 38  1  0
 19 39  1  0
 21 40  1  0
 21 41  1  0
 21 42  1  0
 22 43  1  0
 22 44  1  0
 22 45  1  0
 23 46  1  0
 23 47  1  0
 23 48  1  0
M  END
> <Name>
ZINC05736875

> <reference>
BDB50039530

> <quality>
0.696

> <status>
decoy

$$$$
ZINC29623420
  SciTegic06061311253D

 45 45  0  0  1  0            999 V2000
    0.7235    6.6055   -1.1569 C   0  0
   -0.0261    5.2902   -0.9359 C   0  0
    0.9270    4.1978   -0.8539 O   0  0
    0.4265    2.9632   -0.6596 C   0  0
   -0.7740    2.8028   -0.5612 O   0  0
    1.2569    1.9051   -0.5742 N   0  0
    0.7090    0.5501   -0.4744 C   0  0  1  0  0  0
    0.3196    0.0536   -1.8683 C   0  0
   -0.2633   -1.3571   -1.7627 C   0  0  1  0  0  0
   -1.5888   -1.3056   -1.0005 C   0  0
   -0.5036   -1.9160   -3.1666 C   0  0
    1.7633   -0.3836    0.1234 C   0  0
    2.2245    0.1578    1.4088 N   0  0
    3.2782   -0.6003    1.9217 C   0  0
    3.8733   -0.4445    3.1281 C   0  0
    4.8377   -1.3716    3.2403 N   0  0
    4.8753   -2.0913    2.1537 C   0  0
    3.9143   -1.6422    1.2995 N   0  0
    3.6166   -2.1732   -0.0330 C   0  0
    3.5198    0.5699    4.1473 N   0  0
    2.6191    1.3611    3.9321 O   0  0
    4.1296    0.6130    5.2007 O   0  0
    1.2969    6.5490   -2.0939 H   0  0
    1.4114    6.7823   -0.3169 H   0  0
    0.0020    7.4335   -1.2191 H   0  0
   -0.5989    5.3475    0.0014 H   0  0
   -0.7140    5.1133   -1.7758 H   0  0
    2.2768    2.0491   -0.5791 H   0  0
   -0.1804    0.5609    0.1728 H   0  0
    1.2100    0.0342   -2.5139 H   0  0
   -0.4328    0.7292   -2.3014 H   0  0
    0.4435   -2.0066   -1.2255 H   0  0
   -2.2965   -0.6565   -1.5370 H   0  0
   -1.4170   -0.9041    0.0091 H   0  0
   -2.0084   -2.3196   -0.9242 H   0  0
    0.4490   -1.9538   -3.7154 H   0  0
   -1.2105   -1.2673   -3.7046 H   0  0
   -0.9227   -2.9303   -3.0914 H   0  0
    1.3237   -1.3794    0.2821 H   0  0
    2.6162   -0.4650   -0.5665 H   0  0
    1.8235    0.9868    1.8703 H   0  0
    5.5682   -2.9232    1.9592 H   0  0
    3.6911   -1.2759   -0.6650 H   0  0
    2.5421   -2.3976    0.0387 H   0  0
    4.2294   -3.0184   -0.3796 H   0  0
  1  2  1  0
  2  3  1  0
  3  4  1  0
  4  5  2  0
  4  6  1  0
  6  7  1  0
  7  8  1  0
  7 12  1  0
  8  9  1  0
  9 10  1  0
  9 11  1  0
 12 13  1  0
 13 14  1  0
 14 18  1  0
 14 15  2  0
 15 16  1  0
 15 20  1  0
 16 17  2  0
 17 18  1  0
 18 19  1  0
 20 21  2  0
 20 22  2  0
  1 23  1  0
  1 24  1  0
  1 25  1  0
  2 26  1  0
  2 27  1  0
  6 28  1  0
  7 29  1  0
  8 30  1  0
  8 31  1  0
  9 32  1  0
 10 33  1  0
 10 34  1  0
 10 35  1  0
 11 36  1  0
 11 37  1  0
 11 38  1  0
 12 39  1  0
 12 40  1  0
 13 41  1  0
 17 42  1  0
 19 43  1  0
 19 44  1  0
 19 45  1  0
M  END
> <Name>
ZINC29623420

> <reference>
BDB50039530

> <quality>
0.695

> <status>
decoy

$$$$
ZINC20227766
  SciTegic06061311253D

 38 39  0  0  0  0            999 V2000
    7.1377    3.9444   -0.0462 C   0  0
    5.7101    4.0052   -0.0316 O   0  0
    5.0739    2.7256   -0.0328 C   0  0
    3.5553    2.9111   -0.0167 C   0  0
    2.7494    1.2904   -0.0182 S   0  0
    1.0595    1.7889    0.0015 C   0  0
   -0.0111    0.9658    0.0074 N   0  0
   -1.1471    1.7910    0.0165 N   0  0
   -0.7194    3.0309    0.0252 C   0  0
    0.6185    3.0293    0.0124 N   0  0
   -1.5280    4.1668    0.0386 N   0  0
   -2.9227    4.0338    0.0513 N   0  0
   -3.6756    5.0914    0.0638 C   0  0
   -5.1432    4.9513    0.0771 C   0  0
   -5.7261    3.6814    0.0705 C   0  0
   -7.0984    3.5554    0.0869 C   0  0
   -7.9018    4.6881    0.1007 C   0  0
   -7.3270    5.9524    0.1025 C   0  0
   -5.9555    6.0882    0.0906 C   0  0
   -9.2544    4.5591    0.1121 O   0  0
   -9.7793    3.2300    0.1095 C   0  0
    7.4366    3.3850   -0.9449 H   0  0
    7.4544    3.3745    0.8397 H   0  0
    7.5851    4.9493   -0.0447 H   0  0
    5.3655    2.1718   -0.9374 H   0  0
    5.3829    2.1604    0.8588 H   0  0
    3.2629    3.4645    0.8879 H   0  0
    3.2442    3.4752   -0.9083 H   0  0
    1.2129    3.8705    0.0112 H   0  0
   -1.1000    5.1037    0.0392 H   0  0
   -3.2186    6.0920    0.0645 H   0  0
   -5.0907    2.7837    0.0522 H   0  0
   -7.5581    2.5561    0.0891 H   0  0
   -7.9673    6.8468    0.1134 H   0  0
   -5.5011    7.0899    0.0917 H   0  0
   -9.3558    2.7285    0.9922 H   0  0
   -9.3717    2.7382   -0.7860 H   0  0
  -10.8790    3.2069    0.1192 H   0  0
  1  2  1  0
  2  3  1  0
  3  4  1  0
  4  5  1  0
  5  6  1  0
  6 10  1  0
  6  7  2  0
  7  8  1  0
  8  9  2  0
  9 10  1  0
  9 11  1  0
 11 12  1  0
 12 13  2  0
 13 14  1  0
 14 19  2  0
 14 15  1  0
 15 16  2  0
 16 17  1  0
 17 18  2  0
 17 20  1  0
 18 19  1  0
 20 21  1  0
  1 22  1  0
  1 23  1  0
  1 24  1  0
  3 25  1  0
  3 26  1  0
  4 27  1  0
  4 28  1  0
 10 29  1  0
 11 30  1  0
 13 31  1  0
 15 32  1  0
 16 33  1  0
 18 34  1  0
 19 35  1  0
 21 36  1  0
 21 37  1  0
 21 38  1  0
M  END
> <Name>
ZINC20227766

> <reference>
BDB50039530

> <quality>
0.693

> <status>
decoy

$$$$
ZINC22459559
  SciTegic06061311253D

 43 44  0  0  0  0            999 V2000
   -3.6120    2.1979    0.5313 C   0  0
   -2.4411    1.2457    0.2799 C   0  0
   -1.1996    1.9985    0.2656 O   0  0
   -0.0644    1.3028    0.0543 C   0  0
   -0.1112    0.0996   -0.1133 O   0  0
    1.2288    1.9995    0.0207 C   0  0
    2.0611    2.2405    1.0790 C   0  0
    3.1453    2.9016    0.6328 N   0  0
    3.0539    3.1191   -0.7110 C   0  0
    1.8893    2.5861   -1.1593 C   0  0
    1.3833    2.5931   -2.5536 C   0  0
    0.8859    1.4507   -3.1127 C   0  0
    0.4445    2.0409   -4.7415 S   0  0
    0.9628    3.7363   -4.5153 C   0  0
    1.4042    3.7140   -3.2708 N   0  0
    0.9101    4.7950   -5.4075 N   0  0
    0.3684    4.5925   -6.7535 C   0  0
    0.4244    5.9099   -7.5294 C   0  0
    1.7880    6.2905   -7.7240 O   0  0
    1.9529    7.5147   -8.4425 C   0  0
    4.0763    3.8333   -1.5569 C   0  0
    1.8077    1.8310    2.5069 C   0  0
   -3.6507    2.9523   -0.2683 H   0  0
   -3.4767    2.6990    1.5011 H   0  0
   -4.5529    1.6282    0.5423 H   0  0
   -2.4030    0.4919    1.0801 H   0  0
   -2.5763    0.7445   -0.6899 H   0  0
    3.9340    3.2015    1.2235 H   0  0
    0.7847    0.4445   -2.6800 H   0  0
    1.2518    5.7245   -5.1244 H   0  0
   -0.6757    4.2537   -6.6826 H   0  0
    0.9656    3.8326   -7.2788 H   0  0
   -0.0628    5.7807   -8.5071 H   0  0
   -0.0968    6.6941   -6.9607 H   0  0
    1.4270    8.3016   -7.8819 H   0  0
    1.4607    7.3950   -9.4189 H   0  0
    3.0156    7.7690   -8.5692 H   0  0
    4.9995    3.2740   -1.3450 H   0  0
    4.1839    4.7997   -1.0426 H   0  0
    3.8443    3.9217   -2.6285 H   0  0
    1.6383    0.7475    2.4215 H   0  0
    0.8230    2.2749    2.7149 H   0  0
    2.5839    2.1052    3.2366 H   0  0
  1  2  1  0
  2  3  1  0
  3  4  1  0
  4  5  2  0
  4  6  1  0
  6 10  1  0
  6  7  2  0
  7  8  1  0
  7 22  1  0
  8  9  1  0
  9 10  2  0
  9 21  1  0
 10 11  1  0
 11 15  1  0
 11 12  2  0
 12 13  1  0
 13 14  1  0
 14 15  2  0
 14 16  1  0
 16 17  1  0
 17 18  1  0
 18 19  1  0
 19 20  1  0
  1 23  1  0
  1 24  1  0
  1 25  1  0
  2 26  1  0
  2 27  1  0
  8 28  1  0
 12 29  1  0
 16 30  1  0
 17 31  1  0
 17 32  1  0
 18 33  1  0
 18 34  1  0
 20 35  1  0
 20 36  1  0
 20 37  1  0
 21 38  1  0
 21 39  1  0
 21 40  1  0
 22 41  1  0
 22 42  1  0
 22 43  1  0
M  END
> <Name>
ZINC22459559

> <reference>
BDB50039530

> <quality>
0.692

> <status>
decoy

$$$$
ZINC27418218
  SciTegic06061311253D

 35 35  0  0  1  0            999 V2000
    1.5230    4.0644    1.1233 C   0  0
    0.9540    3.3419    0.1347 C   0  0
    0.0753    3.9848   -0.7702 C   0  0
   -0.4534    3.3531   -1.6671 O   0  0
   -0.1703    5.3032   -0.6301 N   0  0
    0.4149    6.0007    0.3612 C   0  0
    0.1843    7.1891    0.4750 O   0  0
    1.2518    5.4016    1.2277 N   0  0
    1.8739    6.1869    2.2966 C   0  0
    0.9070    6.4573    3.3134 O   0  0
    0.6892    5.3684    4.2128 C   0  0  1  0  0  0
    0.2931    5.9130    5.5866 C   0  0
   -0.9666    6.5806    5.4893 O   0  0
   -0.4328    4.4786    3.6741 C   0  0
   -1.6593    5.2119    3.6644 O   0  0
    1.2455    1.8695    0.0002 C   0  0  2  0  0  0
    1.9831    1.6138   -1.3156 C   0  0
    2.3633   -0.3071   -1.4911 Br  0  0
   -0.0132    1.1198    0.0082 N   0  0
    0.0021   -0.0041    0.0020 N   0  3
    0.0173   -1.1279   -0.0042 N   0  5
    2.2013    3.5804    1.8414 H   0  0
   -0.8083    5.7785   -1.2843 H   0  0
    2.2479    7.1362    1.8856 H   0  0
    2.7111    5.6194    2.7291 H   0  0
    1.6130    4.7784    4.3047 H   0  0
    1.0576    6.6230    5.9351 H   0  0
    0.2123    5.0810    6.3016 H   0  0
   -1.6560    5.9425    5.1767 H   0  0
   -0.5410    3.5931    4.3176 H   0  0
   -0.1886    4.1600    2.6500 H   0  0
   -1.5639    6.0088    3.0847 H   0  0
    1.8730    1.5415    0.8420 H   0  0
    2.9286    2.1760   -1.3226 H   0  0
    1.3555    1.9411   -2.1576 H   0  0
  1  8  1  0
  1  2  2  0
  2  3  1  0
  2 16  1  0
  3  4  2  0
  3  5  1  0
  5  6  1  0
  6  7  2  0
  6  8  1  0
  8  9  1  0
  9 10  1  0
 10 11  1  0
 11 12  1  0
 11 14  1  0
 12 13  1  0
 14 15  1  0
 16 17  1  0
 16 19  1  0
 17 18  1  0
 19 20  2  0
 20 21  2  0
  1 22  1  0
  5 23  1  0
  9 24  1  0
  9 25  1  0
 11 26  1  0
 12 27  1  0
 12 28  1  0
 13 29  1  0
 14 30  1  0
 14 31  1  0
 15 32  1  0
 16 33  1  0
 17 34  1  0
 17 35  1  0
M  CHG  2  20   1  21  -1
M  END
> <Name>
ZINC27418218

> <reference>
BDB50020397

> <quality>
0.881

> <status>
decoy

$$$$
ZINC01776952
  SciTegic06061311253D

 44 45  0  0  0  0            999 V2000
   13.4663   -0.9264   -0.1315 C   0  0
   12.0424   -0.3668   -0.1149 C   0  0
   12.0920    1.0613   -0.1077 O   0  0
   10.9024    1.7203   -0.0928 C   0  0
    9.7179    1.0080   -0.0853 C   0  0
    8.4975    1.6883   -0.0700 C   0  0
    8.4805    3.0854   -0.0681 C   0  0
    9.6664    3.7891   -0.0698 C   0  0
   10.8779    3.1132   -0.0845 C   0  0
   12.0439    3.8119   -0.0914 O   0  0
    7.2309    0.9339   -0.0620 C   0  0
    6.0983    1.5674   -0.0478 N   0  0
    4.8947    0.8505   -0.0401 N   0  0
    3.7185    1.5084   -0.0253 C   0  0
    3.7020    2.7214   -0.0187 O   0  0
    2.4238    0.7372   -0.0171 C   0  0
    1.2475    1.7155   -0.0006 C   0  0
   -0.0111    0.9658    0.0074 N   0  0
   -1.2286    1.6469    0.0168 C   0  0
   -2.5004    0.9053    0.0188 C   0  0
   -2.5049   -0.3115    0.0122 O   0  0
   -3.6609    1.5934    0.0285 N   0  0
   -3.6467    2.9393    0.0358 C   0  0
   -4.6997    3.5481    0.0445 O   0  0
   -2.4886    3.6224    0.0340 N   0  0
   -1.2584    2.9542    0.0296 N   0  0
   14.0066   -0.5835    0.7632 H   0  0
   13.9895   -0.5738   -1.0326 H   0  0
   13.4289   -2.0257   -0.1370 H   0  0
   11.5030   -0.7099   -1.0100 H   0  0
   11.5192   -0.7193    0.7862 H   0  0
    9.7359   -0.0918   -0.0914 H   0  0
    7.5213    3.6239   -0.0652 H   0  0
    9.6518    4.8890   -0.0595 H   0  0
   12.5279    3.4930   -0.8940 H   0  0
    7.2458   -0.1660   -0.0681 H   0  0
    4.9087   -0.1794   -0.0457 H   0  0
    2.3652    0.1093   -0.9184 H   0  0
    2.3815    0.0990    0.8778 H   0  0
    1.3053    2.3435    0.9007 H   0  0
    1.2875    2.3539   -0.8955 H   0  0
    0.0029   -0.0641    0.0061 H   0  0
   -4.5586    1.0883    0.0303 H   0  0
   -2.5068    4.6522    0.0359 H   0  0
  1  2  1  0
  2  3  1  0
  3  4  1  0
  4  9  2  0
  4  5  1  0
  5  6  2  0
  6  7  1  0
  6 11  1  0
  7  8  2  0
  8  9  1  0
  9 10  1  0
 11 12  2  0
 12 13  1  0
 13 14  1  0
 14 15  2  0
 14 16  1  0
 16 17  1  0
 17 18  1  0
 18 19  1  0
 19 26  2  0
 19 20  1  0
 20 21  2  0
 20 22  1  0
 22 23  1  0
 23 24  2  0
 23 25  1  0
 25 26  1  0
  1 27  1  0
  1 28  1  0
  1 29  1  0
  2 30  1  0
  2 31  1  0
  5 32  1  0
  7 33  1  0
  8 34  1  0
 10 35  1  0
 11 36  1  0
 13 37  1  0
 16 38  1  0
 16 39  1  0
 17 40  1  0
 17 41  1  0
 18 42  1  0
 22 43  1  0
 25 44  1  0
M  END
> <Name>
ZINC01776952

> <reference>
BDB50020397

> <quality>
0.813

> <status>
decoy

$$$$
ZINC23989740
  SciTegic06061311253D

 51 53  0  0  0  0            999 V2000
    4.5377   -2.1121   -0.0525 C   0  0
    3.3480   -1.1873   -0.0362 C   0  0
    3.3931    0.1417   -0.0295 C   0  0
    2.0951    0.6214   -0.0146 N   0  0
    1.3080    1.7631   -0.0010 C   0  0
   -0.0160    1.3261    0.0093 C   0  0
    0.0021   -0.0041    0.0020 N   0  0
    1.2538   -0.4388   -0.0123 C   0  0
    2.0211   -1.5735   -0.0257 N   0  0
    1.5236   -2.9515   -0.0289 C   0  0
    1.3372   -3.4230   -1.4724 C   0  0
    0.8383   -4.8047   -1.4756 N   0  3
    0.6469   -5.2922   -2.8481 C   0  0
    0.1279   -6.7310   -2.8106 C   0  0
   -1.1717   -6.7532   -2.2169 O   0  0
   -1.7502   -8.0572   -2.1332 C   0  0
   -3.1327   -7.9611   -1.4849 C   0  0
   -4.0061   -7.2138   -2.3339 O   0  0
   -1.0309    2.2710    0.0190 N   0  0
   -0.7292    3.5832    0.0261 C   0  0
   -1.6309    4.3990    0.0375 O   0  0
    0.5441    4.0136    0.0166 N   0  0
    1.5736    3.1422    0.0030 C   0  0
    2.7230    3.5477   -0.0062 O   0  0
    0.8182    5.4528    0.0208 C   0  0
   -2.4315    1.8415    0.0236 C   0  0
    4.3383   -2.7427   -0.9314 H   0  0
    4.3549   -2.7523    0.8232 H   0  0
    5.5288   -1.6350   -0.0593 H   0  0
    4.3062    0.7550   -0.0349 H   0  0
    2.2488   -3.6045    0.4788 H   0  0
    0.5589   -2.9955    0.4979 H   0  0
    0.6118   -2.7706   -1.9806 H   0  0
    2.3012   -3.3808   -2.0005 H   0  0
    1.5154   -5.4115   -0.9916 H   0  0
   -0.0603   -4.8435   -0.9738 H   0  0
    1.6061   -5.2631   -3.3858 H   0  0
   -0.0833   -4.6530   -3.3659 H   0  0
    0.0691   -7.1266   -3.8353 H   0  0
    0.8126   -7.3536   -2.2159 H   0  0
   -1.1049   -8.7075   -1.5243 H   0  0
   -1.8483   -8.4805   -3.1437 H   0  0
   -3.5405   -8.9722   -1.3391 H   0  0
   -3.0481   -7.4560   -0.5114 H   0  0
   -4.0841   -7.6678   -3.2102 H   0  0
    0.3082    5.8436    0.9137 H   0  0
    0.2922    5.8518   -0.8590 H   0  0
    1.8905    5.6979    0.0123 H   0  0
   -2.5274    1.1916    0.9059 H   0  0
   -2.5360    1.2005   -0.8642 H   0  0
   -3.1545    2.6705    0.0313 H   0  0
  1  2  1  0
  2  9  1  0
  2  3  2  0
  3  4  1  0
  4  8  1  0
  4  5  1  0
  5 23  1  0
  5  6  2  0
  6  7  1  0
  6 19  1  0
  7  8  2  0
  8  9  1  0
  9 10  1  0
 10 11  1  0
 11 12  1  0
 12 13  1  0
 13 14  1  0
 14 15  1  0
 15 16  1  0
 16 17  1  0
 17 18  1  0
 19 20  1  0
 19 26  1  0
 20 21  2  0
 20 22  1  0
 22 23  1  0
 22 25  1  0
 23 24  2  0
  1 27  1  0
  1 28  1  0
  1 29  1  0
  3 30  1  0
 10 31  1  0
 10 32  1  0
 11 33  1  0
 11 34  1  0
 12 35  1  0
 12 36  1  0
 13 37  1  0
 13 38  1  0
 14 39  1  0
 14 40  1  0
 16 41  1  0
 16 42  1  0
 17 43  1  0
 17 44  1  0
 18 45  1  0
 25 46  1  0
 25 47  1  0
 25 48  1  0
 26 49  1  0
 26 50  1  0
 26 51  1  0
M  CHG  1  12   1
M  END
> <Name>
ZINC23989740

> <reference>
BDB50020397

> <quality>
0.807

> <status>
decoy

$$$$
ZINC20478020
  SciTegic06061311253D

 46 47  0  0  0  0            999 V2000
    0.4244   -3.1235   -4.6622 C   0  0
    0.0107   -2.4847   -3.3615 C   0  0
   -0.3652   -3.2697   -2.2827 C   0  0
   -0.7381   -2.6417   -1.1046 C   0  0
   -0.7242   -1.3204   -1.0456 N   0  0
   -0.3596   -0.5995   -2.0951 C   0  0
   -0.0029   -1.1679   -3.2369 N   0  0
   -0.3567    0.7849   -1.9978 N   0  0
    0.1733    1.5462   -3.0171 C   0  0
    0.1076    2.8462   -2.9610 N   0  0
    0.8296    3.6591   -3.9430 C   0  0
    0.1864    5.0446   -4.0298 C   0  0
    0.9404    5.8936   -5.0553 C   0  0  1  0  0  0
    0.2239    7.2336   -5.2336 C   0  0
    2.3678    6.1401   -4.5626 C   0  0
    0.7661    0.9337   -4.0957 N   0  0
    0.1559    1.1649   -5.6177 S   0  0
   -0.1423   -0.1242   -6.1359 O   0  0
   -0.8239    2.1886   -5.5113 O   0  0
    1.4595    1.8165   -6.6082 C   0  0
    2.0371    1.2033   -7.6558 N   0  0
    3.0182    2.0848   -8.1382 N   0  5
    2.9846    3.1432   -7.3719 C   0  0
    2.0341    2.9815   -6.4523 N   0  0
   -1.1539   -3.4545    0.0944 C   0  0
    1.4316   -2.7307   -4.8653 H   0  0
   -0.2512   -2.6959   -5.4176 H   0  0
    0.3962   -4.2230   -4.6457 H   0  0
   -0.3675   -4.3670   -2.3598 H   0  0
   -0.7506    1.2434   -1.1638 H   0  0
   -0.4519    3.3024   -2.2263 H   0  0
    1.8800    3.7619   -3.6329 H   0  0
    0.7841    3.1722   -4.9283 H   0  0
    0.2320    5.5336   -3.0455 H   0  0
   -0.8639    4.9426   -4.3403 H   0  0
    0.9714    5.3634   -6.0186 H   0  0
    0.1926    7.7648   -4.2709 H   0  0
   -0.8024    7.0575   -5.5881 H   0  0
    0.7655    7.8445   -5.9708 H   0  0
    2.8840    5.1772   -4.4343 H   0  0
    2.3379    6.6706   -3.5994 H   0  0
    2.9105    6.7505   -5.2994 H   0  0
    3.6355    4.0245   -7.4703 H   0  0
   -0.3034   -4.1240    0.2905 H   0  0
   -1.9834   -4.0820   -0.2636 H   0  0
   -1.4283   -2.8508    0.9721 H   0  0
  1  2  1  0
  2  7  2  0
  2  3  1  0
  3  4  2  0
  4  5  1  0
  4 25  1  0
  5  6  2  0
  6  7  1  0
  6  8  1  0
  8  9  1  0
  9 10  1  0
  9 16  2  3
 10 11  1  0
 11 12  1  0
 12 13  1  0
 13 14  1  0
 13 15  1  0
 16 17  1  0
 17 18  2  0
 17 19  2  0
 17 20  1  0
 20 24  1  0
 20 21  2  0
 21 22  1  0
 22 23  1  0
 23 24  2  0
  1 26  1  0
  1 27  1  0
  1 28  1  0
  3 29  1  0
  8 30  1  0
 10 31  1  0
 11 32  1  0
 11 33  1  0
 12 34  1  0
 12 35  1  0
 13 36  1  0
 14 37  1  0
 14 38  1  0
 14 39  1  0
 15 40  1  0
 15 41  1  0
 15 42  1  0
 23 43  1  0
 25 44  1  0
 25 45  1  0
 25 46  1  0
M  CHG  1  22  -1
M  END
> <Name>
ZINC20478020

> <reference>
BDB50020397

> <quality>
0.795

> <status>
decoy

$$$$
ZINC08670262
  SciTegic06061311253D

 46 47  0  0  0  0            999 V2000
    2.9500    1.5864    2.5775 C   0  0
    3.4164    2.4034    1.3709 C   0  0
    4.8050    0.5853    0.5778 C   0  0
    6.1228    1.3623    0.6017 C   0  0
    2.5011    0.7543   -0.1474 C   0  0
    1.4643    1.7245   -0.7173 C   0  0
    0.2653    0.9812   -1.1125 N   0  0
   -1.1471    1.7900   -1.4181 S   0  0
   -2.1008    0.8100   -1.8044 O   0  0
   -1.3582    2.6675   -0.3205 O   0  0
   -0.8700    2.8071   -2.8299 C   0  0
   -0.4063    4.1089   -2.6597 C   0  0
   -0.1771    4.9186   -3.7308 C   0  0
   -0.4201    4.4436   -5.0300 C   0  0
   -0.8971    3.1215   -5.1996 C   0  0
   -1.1174    2.3123   -4.0753 C   0  0
   -1.1421    2.6420   -6.5060 C   0  0
   -0.8973    3.5103   -7.5771 C   0  0
   -0.4240    4.8073   -7.3169 C   0  0
   -0.2060    5.2257   -6.0968 N   0  0
   -1.1330    3.0686   -8.9614 C   0  0
   -1.5421    1.9451   -9.1795 O   0  0
   -1.5976    1.3859   -6.7151 O   0  0
    3.7115    1.5157    0.2265 N   0  3
   -0.8951    3.9100   -9.9871 O   0  5
    3.7420    0.8766    2.8586 H   0  0
    2.0432    1.0271    2.3038 H   0  0
    2.7331    2.2557    3.4231 H   0  0
    2.6270    3.1142    1.0851 H   0  0
    4.3239    2.9646    1.6385 H   0  0
    4.8629   -0.2154   -0.1742 H   0  0
    4.6140    0.1512    1.5703 H   0  0
    6.0700    2.1642    1.3528 H   0  0
    6.3178    1.7976   -0.3895 H   0  0
    6.9423    0.6765    0.8626 H   0  0
    2.7600    0.0022   -0.9072 H   0  0
    2.0896    0.2569    0.7433 H   0  0
    1.8836    2.2365   -1.5960 H   0  0
    1.1983    2.4683    0.0482 H   0  0
    0.3008   -0.0444   -1.2003 H   0  0
   -0.2221    4.4895   -1.6442 H   0  0
    0.1973    5.9417   -3.5787 H   0  0
   -1.4879    1.2839   -4.1982 H   0  0
   -0.2321    5.4876   -8.1597 H   0  0
   -2.4287    1.3335   -6.1797 H   0  0
    4.0061    2.0907   -0.5757 H   0  0
  1  2  1  0
  2 24  1  0
  3  4  1  0
  3 24  1  0
  5  6  1  0
  5 24  1  0
  6  7  1  0
  7  8  1  0
  8  9  2  0
  8 10  2  0
  8 11  1  0
 11 16  1  0
 11 12  2  0
 12 13  1  0
 13 14  2  0
 14 20  1  0
 14 15  1  0
 15 16  2  0
 15 17  1  0
 17 18  2  0
 17 23  1  0
 18 19  1  0
 18 21  1  0
 19 20  2  0
 21 22  2  0
 21 25  1  0
  1 26  1  0
  1 27  1  0
  1 28  1  0
  2 29  1  0
  2 30  1  0
  3 31  1  0
  3 32  1  0
  4 33  1  0
  4 34  1  0
  4 35  1  0
  5 36  1  0
  5 37  1  0
  6 38  1  0
  6 39  1  0
  7 40  1  0
 12 41  1  0
 13 42  1  0
 16 43  1  0
 19 44  1  0
 23 45  1  0
 24 46  1  0
M  CHG  2  24   1  25  -1
M  END
> <Name>
ZINC08670262

> <reference>
BDB50020397

> <quality>
0.792

> <status>
decoy

$$$$
ZINC11562944
  SciTegic06061311253D

 52 52  0  0  1  0            999 V2000
    3.7931    4.2434    4.8144 C   0  0
    3.4079    3.3618    3.6247 C   0  0  1  0  0  0
    2.4481    2.2657    4.0919 C   0  0
    2.7239    4.2173    2.5564 C   0  0
    2.4625    3.3993    1.3694 N   0  0
    1.2727    2.7164    1.2576 C   0  0
    1.0381    1.9551    0.1449 C   0  0
    2.0249    1.8864   -0.8549 C   0  0
    1.8410    1.2101   -1.8532 O   0  0
    3.1727    2.5764   -0.7056 N   0  0
    3.3870    3.3197    0.3950 C   0  0
    4.4327    3.9296    0.5109 O   0  0
   -0.1760    1.2434    0.0051 N   0  0
    0.0705   -0.1998   -0.1147 C   0  0
    0.6553   -0.7279    1.1968 C   0  0
   -0.3035   -0.5680    2.2443 O   0  0
    0.1000   -1.1338    3.4929 C   0  0
   -0.9497    1.7422   -1.1398 C   0  0
   -2.3782    1.2769   -1.0216 C   0  0
   -2.7423    0.6837   -0.0290 O   0  0
   -3.2509    1.5204   -2.0193 N   0  0
   -4.5497    1.1913   -1.8738 C   0  0
   -4.9516    0.7582   -0.8117 O   0  0
   -5.4029    1.3423   -2.9062 N   0  0
   -6.8148    0.9845   -2.7480 C   0  0
    0.3280    2.7986    2.2549 N   0  0
    4.2852    3.6294    5.5830 H   0  0
    2.8889    4.7049    5.2381 H   0  0
    4.4832    5.0317    4.4792 H   0  0
    4.3127    2.9010    3.2016 H   0  0
    1.5427    2.7255    4.5149 H   0  0
    2.9390    1.6499    4.8599 H   0  0
    2.1707    1.6315    3.2370 H   0  0
    1.7730    4.6051    2.9505 H   0  0
    3.3784    5.0585    2.2842 H   0  0
    3.8927    2.5343   -1.4410 H   0  0
    0.7818   -0.3847   -0.9332 H   0  0
   -0.8765   -0.7172   -0.3279 H   0  0
    1.5669   -0.1650    1.4460 H   0  0
    0.9016   -1.7942    1.0855 H   0  0
    1.0467   -0.6549    3.7835 H   0  0
    0.2886   -2.2046    3.3262 H   0  0
   -0.6658   -0.9882    4.2690 H   0  0
   -0.5152    1.3560   -2.0736 H   0  0
   -0.9224    2.8418   -1.1498 H   0  0
   -2.9253    1.9580   -2.8930 H   0  0
   -5.0623    1.7092   -3.8064 H   0  0
   -7.1677    1.5808   -1.8937 H   0  0
   -6.8098   -0.0687   -2.4307 H   0  0
   -7.4198    1.1476   -3.6521 H   0  0
    0.5134    3.3743    3.0886 H   0  0
   -0.5615    2.2865    2.1686 H   0  0
  1  2  1  0
  2  3  1  0
  2  4  1  0
  4  5  1  0
  5 11  1  0
  5  6  1  0
  6  7  2  0
  6 26  1  0
  7  8  1  0
  7 13  1  0
  8  9  2  0
  8 10  1  0
 10 11  1  0
 11 12  2  0
 13 14  1  0
 13 18  1  0
 14 15  1  0
 15 16  1  0
 16 17  1  0
 18 19  1  0
 19 20  2  0
 19 21  1  0
 21 22  1  0
 22 23  2  0
 22 24  1  0
 24 25  1  0
  1 27  1  0
  1 28  1  0
  1 29  1  0
  2 30  1  0
  3 31  1  0
  3 32  1  0
  3 33  1  0
  4 34  1  0
  4 35  1  0
 10 36  1  0
 14 37  1  0
 14 38  1  0
 15 39  1  0
 15 40  1  0
 17 41  1  0
 17 42  1  0
 17 43  1  0
 18 44  1  0
 18 45  1  0
 21 46  1  0
 24 47  1  0
 25 48  1  0
 25 49  1  0
 25 50  1  0
 26 51  1  0
 26 52  1  0
M  END
> <Name>
ZINC11562944

> <reference>
BDB50020397

> <quality>
0.769

> <status>
decoy

$$$$
ZINC01446121
  SciTegic06061311253D

 49 51  0  0  1  0            999 V2000
    7.1651    1.3546    1.8681 C   0  0
    5.6840    1.2010    1.5167 C   0  0
    4.9249    0.9341    2.7253 O   0  0
    3.5942    0.7717    2.5887 C   0  0
    3.0821    0.8511    1.4896 O   0  0
    2.7599    0.4980    3.7723 C   0  0
    1.4057    0.3143    3.7700 C   0  0
    1.0394    0.0956    5.0520 N   0  0
    2.2103    0.1449    5.8217 N   0  0
    3.2024    0.3863    5.0373 N   0  0
   -0.2584   -0.1374    5.5210 C   0  0
   -0.6365   -0.3729    6.9173 C   0  0
   -1.9282   -0.5495    6.9684 N   0  0
   -2.4333   -0.4403    5.6493 O   0  0
   -1.3372   -0.1763    4.7915 N   0  0
    0.2328   -0.4034    8.0020 N   0  0
    0.4954    0.3545    2.5697 C   0  0
   -0.7320    2.2039    3.5359 C   0  0
   -1.0900    3.6799    3.3485 C   0  0
   -1.9350    3.8382    2.0814 C   0  0
   -1.1529    3.2906    0.8843 C   0  0
   -0.7933    1.8257    1.1431 C   0  0  1  0  0  0
    0.0056    1.2799   -0.0421 C   0  0
   -0.8662    1.3039   -1.2992 C   0  0
   -0.0950    0.8720   -2.4220 O   0  0
    0.0399    1.7445    2.3616 N   0  0
    7.5309    0.4270    2.3326 H   0  0
    7.2913    2.1907    2.5716 H   0  0
    7.7408    1.5568    0.9528 H   0  0
    5.3190    2.1291    1.0525 H   0  0
    5.5577    0.3649    0.8132 H   0  0
    1.2263   -0.2439    7.7818 H   0  0
   -0.0795   -0.5731    8.9687 H   0  0
    1.0434    0.0101    1.6803 H   0  0
   -0.3749   -0.2951    2.7444 H   0  0
   -1.6531    1.6093    3.6255 H   0  0
   -0.1239    2.0852    4.4448 H   0  0
   -1.6640    4.0319    4.2183 H   0  0
   -0.1686    4.2728    3.2509 H   0  0
   -2.1580    4.9029    1.9177 H   0  0
   -2.8745    3.2771    2.1936 H   0  0
   -1.7718    3.3615   -0.0223 H   0  0
   -0.2313    3.8755    0.7478 H   0  0
   -1.7129    1.2361    1.2723 H   0  0
    0.3157    0.2457    0.1684 H   0  0
    0.8967    1.9045   -0.2026 H   0  0
   -1.2285    2.3274   -1.4760 H   0  0
   -1.7245    0.6294   -1.1633 H   0  0
    0.2310   -0.0495   -2.2648 H   0  0
  1  2  1  0
  2  3  1  0
  3  4  1  0
  4  5  2  0
  4  6  1  0
  6 10  1  0
  6  7  2  0
  7  8  1  0
  7 17  1  0
  8  9  1  0
  8 11  1  0
  9 10  2  0
 11 15  2  0
 11 12  1  0
 12 13  2  0
 12 16  1  0
 13 14  1  0
 14 15  1  0
 17 26  1  0
 18 19  1  0
 18 26  1  0
 19 20  1  0
 20 21  1  0
 21 22  1  0
 22 23  1  0
 22 26  1  0
 23 24  1  0
 24 25  1  0
  1 27  1  0
  1 28  1  0
  1 29  1  0
  2 30  1  0
  2 31  1  0
 16 32  1  0
 16 33  1  0
 17 34  1  0
 17 35  1  0
 18 36  1  0
 18 37  1  0
 19 38  1  0
 19 39  1  0
 20 40  1  0
 20 41  1  0
 21 42  1  0
 21 43  1  0
 22 44  1  0
 23 45  1  0
 23 46  1  0
 24 47  1  0
 24 48  1  0
 25 49  1  0
M  END
> <Name>
ZINC01446121

> <reference>
BDB50020397

> <quality>
0.768

> <status>
decoy

$$$$
ZINC28016412
  SciTegic06061311253D

 41 43  0  0  0  0            999 V2000
    2.0910    0.7580   -0.0138 C   0  0
    1.3031   -0.4092   -0.0126 C   0  0
    0.0021   -0.0041    0.0020 C   0  0
   -0.0162    1.3435    0.0094 O   0  0
    1.2446    1.8069   -0.0001 C   0  0
   -1.1768   -0.8841    0.0081 C   0  0
   -1.1964   -2.1675   -0.2783 N   0  0
   -2.3933   -2.6226   -0.1700 N   0  0
   -3.2138   -1.6589    0.1830 C   0  0
   -2.4706   -0.5187    0.3091 N   0  0
   -2.9498    0.8136    0.6852 C   0  0
   -3.3530    1.5846   -0.5734 C   0  0
   -3.8460    2.9551   -0.1865 C   0  0
   -3.8721    3.2830    0.9809 O   0  0
   -4.2577    3.8166   -1.1377 N   0  0
   -4.9499   -1.8085    0.4446 S   0  0
   -5.1702   -3.5702    0.0922 C   0  0
   -6.6445   -3.9433    0.2599 C   0  0
   -6.8228   -5.3692   -0.0252 N   0  0
   -6.7326   -6.3436    0.9014 C   0  0
   -6.4964   -6.2109    2.0830 O   0  0
   -6.9871   -7.6403    0.1586 C   0  0
   -7.2122   -7.2050   -1.2306 N   0  0
   -7.1009   -5.8643   -1.2366 C   0  0
   -7.2347   -5.1797   -2.2319 O   0  0
    3.1900    0.8049   -0.0240 H   0  0
    1.6674   -1.4471   -0.0217 H   0  0
    1.5378    2.8671    0.0028 H   0  0
   -3.8210    0.7160    1.3496 H   0  0
   -2.1495    1.3584    1.2074 H   0  0
   -4.1541    1.0417   -1.0964 H   0  0
   -2.4821    1.6829   -1.2381 H   0  0
   -4.2354    3.5383   -2.1291 H   0  0
   -4.5947    4.7533   -0.8732 H   0  0
   -4.8546   -3.7799   -0.9405 H   0  0
   -4.5609   -4.1637    0.7897 H   0  0
   -6.9607   -3.7340    1.2925 H   0  0
   -7.2553   -3.3515   -0.4377 H   0  0
   -6.1012   -8.2900    0.2149 H   0  0
   -7.8874   -8.1342    0.5529 H   0  0
   -7.4152   -7.8093   -2.0396 H   0  0
  1  5  2  0
  1  2  1  0
  2  3  2  0
  3  4  1  0
  3  6  1  0
  4  5  1  0
  6 10  1  0
  6  7  2  0
  7  8  1  0
  8  9  2  0
  9 10  1  0
  9 16  1  0
 10 11  1  0
 11 12  1  0
 12 13  1  0
 13 14  2  0
 13 15  1  0
 16 17  1  0
 17 18  1  0
 18 19  1  0
 19 24  1  0
 19 20  1  0
 20 21  2  0
 20 22  1  0
 22 23  1  0
 23 24  1  0
 24 25  2  0
  1 26  1  0
  2 27  1  0
  5 28  1  0
 11 29  1  0
 11 30  1  0
 12 31  1  0
 12 32  1  0
 15 33  1  0
 15 34  1  0
 17 35  1  0
 17 36  1  0
 18 37  1  0
 18 38  1  0
 22 39  1  0
 22 40  1  0
 23 41  1  0
M  END
> <Name>
ZINC28016412

> <reference>
BDB50020397

> <quality>
0.765

> <status>
decoy

$$$$
ZINC06192470
  SciTegic06061311253D

 39 40  0  0  1  0            999 V2000
   -2.3843    1.4090    0.0210 C   0  0
   -1.2355    2.0933    0.0193 C   0  0
   -1.2555    3.5678    0.0274 C   0  0
   -2.3314    4.4170    0.0371 C   0  0
   -2.1024    5.7746    0.0439 C   0  0
   -0.8228    6.2303    0.0407 C   0  0
    0.1155    4.7115    0.0350 S   0  0
   -0.0171    1.4118    0.0098 N   0  0
    0.0021   -0.0041    0.0020 O   0  0
    1.3152   -0.5675   -0.0135 C   0  0
    1.2166   -2.0712   -0.0207 C   0  0
    0.1287   -2.6078   -0.0132 O   0  0
    2.3386   -2.8209   -0.0354 N   0  0
    2.2542   -4.1081   -0.0415 N   0  0
    3.3671   -4.8517   -0.0561 C   0  0
    3.2761   -6.2392   -0.0627 C   0  0
    2.0192   -6.8732   -0.0541 C   0  0
    1.9299   -8.2331   -0.0605 C   0  0
    3.1196   -9.0759   -0.0764 C   0  0
    4.3576   -8.5325   -0.0853 C   0  0
    4.5033   -7.0754   -0.0851 C   0  0
    5.6060   -6.5608   -0.0984 O   0  0
    0.6786   -8.8291   -0.0523 N   0  0
    0.5666  -10.2406   -0.0587 O   0  0
   -0.4878   -8.0264   -0.0373 O   0  0
   -3.3443    1.9460    0.0284 H   0  0
   -2.3694    0.3091    0.0150 H   0  0
   -3.3578    4.0215    0.0394 H   0  0
   -2.9452    6.4814    0.0518 H   0  0
   -0.4584    7.2682    0.0414 H   0  0
    0.8678    1.9389    0.0085 H   0  0
    1.8660   -0.2412    0.8810 H   0  0
    1.8480   -0.2312   -0.9152 H   0  0
    4.3536   -4.3652   -0.0629 H   0  0
    1.1019   -6.2662   -0.0421 H   0  0
    3.0082  -10.1702   -0.0812 H   0  0
    5.2474   -9.1792   -0.0926 H   0  0
    1.0815  -10.5417    0.7315 H   0  0
   -0.4056   -7.4408   -0.8313 H   0  0
  1  2  2  0
  2  3  1  0
  2  8  1  0
  3  7  1  0
  3  4  2  0
  4  5  1  0
  5  6  2  0
  6  7  1  0
  8  9  1  0
  9 10  1  0
 10 11  1  0
 11 12  2  0
 11 13  1  0
 13 14  2  0
 14 15  1  0
 15 16  2  0
 16 21  1  0
 16 17  1  0
 17 18  2  0
 18 19  1  0
 18 23  1  0
 19 20  2  0
 20 21  1  0
 21 22  2  0
 23 24  1  0
 23 25  1  0
  1 26  1  0
  1 27  1  0
  4 28  1  0
  5 29  1  0
  6 30  1  0
  8 31  1  0
 10 32  1  0
 10 33  1  0
 15 34  1  0
 17 35  1  0
 19 36  1  0
 20 37  1  0
 24 38  1  0
 25 39  1  0
M  END
> <Name>
ZINC06192470

> <reference>
BDB50020397

> <quality>
0.752

> <status>
decoy

$$$$
ZINC29587184
  SciTegic06061311253D

 50 51  0  0  1  0            999 V2000
    4.8427   -0.0756   -1.4734 C   0  0
    4.8637    0.5861   -0.1620 N   0  3
    6.1448    1.2689    0.0627 C   0  0
    3.7382    1.5202   -0.0255 C   0  0
    2.4238    0.7372   -0.0171 C   0  0  2  0  0  0
    1.2475    1.7155   -0.0006 C   0  0
   -0.0111    0.9658    0.0074 N   0  0
   -1.2300    1.6477    0.0168 C   0  0
   -1.2507    3.0368    0.0245 C   0  0
   -2.4575    3.7078    0.0339 C   0  0
   -3.6449    2.9985    0.0357 C   0  0
   -3.6279    1.6160    0.0281 C   0  0
   -2.4243    0.9385    0.0129 C   0  0
   -2.4038   -0.8233   -0.0041 S   0  0
   -1.5008   -1.2288    1.0154 O   0  0
   -3.7605   -1.2449   -0.0320 O   0  0
   -1.7331   -1.2912   -1.4441 N   0  0
   -2.4707   -1.5473   -2.6898 C   0  0
   -1.4389   -1.9793   -3.7528 C   0  0
   -0.2544   -2.4965   -2.8943 C   0  0
   -0.2982   -1.5263   -1.6874 C   0  0
   -4.9365    3.7210    0.0453 N   0  0
   -4.9530    4.9389    0.0516 O   0  0
   -5.9830    3.0977    0.0470 O   0  0
    2.3704   -0.0915    1.1458 O   0  0
    5.6618   -0.8087   -1.5148 H   0  0
    4.9975    0.6816   -2.2561 H   0  0
    3.8785   -0.5821   -1.6277 H   0  0
    4.7613   -0.1405    0.5608 H   0  0
    6.2919    2.0182   -0.7291 H   0  0
    6.9562    0.5279    0.0122 H   0  0
    6.1461    1.7593    1.0473 H   0  0
    3.8375    2.0790    0.9168 H   0  0
    3.7396    2.2238   -0.8710 H   0  0
    2.3656    0.1089   -0.9181 H   0  0
    1.3053    2.3435    0.9007 H   0  0
    1.2875    2.3539   -0.8955 H   0  0
    0.0029   -0.0641    0.0061 H   0  0
   -0.3067    3.6015    0.0231 H   0  0
   -2.4745    4.8077    0.0400 H   0  0
   -4.5740    1.0550    0.0342 H   0  0
   -2.9792   -0.6289   -3.0185 H   0  0
   -3.2004   -2.3550   -2.5315 H   0  0
   -1.8455   -2.7940   -4.3700 H   0  0
   -1.1234   -1.1135   -4.3535 H   0  0
    0.6938   -2.3851   -3.4407 H   0  0
   -0.4427   -3.5284   -2.5631 H   0  0
    0.1634   -1.9996   -0.8082 H   0  0
    0.2017   -0.5814   -1.9466 H   0  0
    2.4225    0.4732    1.9573 H   0  0
  1  2  1  0
  2  3  1  0
  2  4  1  0
  4  5  1  0
  5  6  1  0
  5 25  1  0
  6  7  1  0
  7  8  1  0
  8 13  2  0
  8  9  1  0
  9 10  2  0
 10 11  1  0
 11 12  2  0
 11 22  1  0
 12 13  1  0
 13 14  1  0
 14 15  2  0
 14 16  2  0
 14 17  1  0
 17 21  1  0
 17 18  1  0
 18 19  1  0
 19 20  1  0
 20 21  1  0
 22 23  2  0
 22 24  2  0
  1 26  1  0
  1 27  1  0
  1 28  1  0
  2 29  1  0
  3 30  1  0
  3 31  1  0
  3 32  1  0
  4 33  1  0
  4 34  1  0
  5 35  1  0
  6 36  1  0
  6 37  1  0
  7 38  1  0
  9 39  1  0
 10 40  1  0
 12 41  1  0
 18 42  1  0
 18 43  1  0
 19 44  1  0
 19 45  1  0
 20 46  1  0
 20 47  1  0
 21 48  1  0
 21 49  1  0
 25 50  1  0
M  CHG  1   2   1
M  END
> <Name>
ZINC29587184

> <reference>
BDB50020397

> <quality>
0.749

> <status>
decoy

$$$$
ZINC30132710
  SciTegic06061311253D

 54 54  0  0  0  0            999 V2000
    2.5946    3.6860    3.8845 C   0  0
    2.6514    3.2330    2.4242 C   0  0
    1.3795    2.4544    2.0820 C   0  0
    1.4468    1.9173    0.3506 S   0  0
    2.4665    0.9424    0.1799 O   0  0
    1.3679    3.0420   -0.5142 O   0  0
    0.0306    1.0950    0.1048 N   0  0
   -1.2496    1.8038    0.1752 C   0  0  2  0  0  0
   -1.8442    1.6480    1.5776 C   0  0
   -3.2091    2.3385    1.6272 C   0  0
   -4.1007    1.7355    0.6283 N   0  0
   -3.5737    1.9143   -0.7306 C   0  0
   -2.2197    1.2112   -0.8506 C   0  0
   -5.4611    2.2783    0.7410 C   0  0
   -6.3997    1.4622   -0.1099 C   0  0
   -6.0022    0.4557   -0.6565 O   0  0
   -7.6809    1.8513   -0.2633 N   0  0
   -8.5203    1.1214   -1.0243 C   0  0
   -8.1219    0.1124   -1.5722 O   0  0
   -9.8016    1.5104   -1.1777 N   0  0
  -10.7140    0.7171   -2.0049 C   0  0
  -12.0964    1.3727   -2.0121 C   0  0  1  0  0  0
  -13.0148    0.6158   -2.9736 C   0  0
  -12.6883    1.3305   -0.6019 C   0  0
    2.5169    2.8059    4.5398 H   0  0
    1.7178    4.3330    4.0350 H   0  0
    3.5088    4.2459    4.1312 H   0  0
    2.7288    4.1137    1.7697 H   0  0
    3.5282    2.5860    2.2737 H   0  0
    0.5016    3.1003    2.2308 H   0  0
    1.3017    1.5732    2.7358 H   0  0
    0.0498    0.0853   -0.0976 H   0  0
   -1.0873    2.8699   -0.0417 H   0  0
   -1.1726    2.1105    2.3158 H   0  0
   -1.9654    0.5794    1.8085 H   0  0
   -3.6459    2.2157    2.6293 H   0  0
   -3.0873    3.4098    1.4095 H   0  0
   -4.2770    1.4805   -1.4567 H   0  0
   -3.4484    2.9873   -0.9381 H   0  0
   -1.8183    1.3593   -1.8640 H   0  0
   -2.3471    0.1356   -0.6585 H   0  0
   -5.4699    3.3230    0.3968 H   0  0
   -5.7874    2.2353    1.7906 H   0  0
   -8.0185    2.7065    0.2010 H   0  0
  -10.1393    2.3655   -0.7133 H   0  0
  -10.7935   -0.2999   -1.5933 H   0  0
  -10.3271    0.6672   -3.0334 H   0  0
  -12.0044    2.4187   -2.3399 H   0  0
  -13.1076   -0.4303   -2.6465 H   0  0
  -12.5903    0.6459   -3.9879 H   0  0
  -14.0089    1.0867   -2.9793 H   0  0
  -12.0288    1.8747    0.0901 H   0  0
  -12.7809    0.2849   -0.2732 H   0  0
  -13.6822    1.8017   -0.6064 H   0  0
  1  2  1  0
  2  3  1  0
  3  4  1  0
  4  5  2  0
  4  6  2  0
  4  7  1  0
  7  8  1  0
  8 13  1  0
  8  9  1  0
  9 10  1  0
 10 11  1  0
 11 12  1  0
 11 14  1  0
 12 13  1  0
 14 15  1  0
 15 16  2  0
 15 17  1  0
 17 18  1  0
 18 19  2  0
 18 20  1  0
 20 21  1  0
 21 22  1  0
 22 23  1  0
 22 24  1  0
  1 25  1  0
  1 26  1  0
  1 27  1  0
  2 28  1  0
  2 29  1  0
  3 30  1  0
  3 31  1  0
  7 32  1  0
  8 33  1  0
  9 34  1  0
  9 35  1  0
 10 36  1  0
 10 37  1  0
 12 38  1  0
 12 39  1  0
 13 40  1  0
 13 41  1  0
 14 42  1  0
 14 43  1  0
 17 44  1  0
 20 45  1  0
 21 46  1  0
 21 47  1  0
 22 48  1  0
 23 49  1  0
 23 50  1  0
 23 51  1  0
 24 52  1  0
 24 53  1  0
 24 54  1  0
M  END
> <Name>
ZINC30132710

> <reference>
BDB50020397

> <quality>
0.749

> <status>
decoy

$$$$
ZINC26701888
  SciTegic06061311253D

 53 56  0  0  1  0            999 V2000
   -2.5844    4.1234   -2.5594 C   0  0
   -2.6401    3.8861   -1.1998 C   0  0
   -3.6209    3.0185   -0.7146 C   0  0
   -4.4602    2.4488   -1.5737 N   0  0
   -4.3769    2.7070   -2.8700 C   0  0
   -3.4565    3.5257   -3.3579 N   0  0
   -5.2695    2.1017   -3.7373 N   0  0
   -5.1894    2.3694   -5.1754 C   0  0
   -6.2242    1.5159   -5.9114 C   0  0  1  0  0  0
   -6.2910    1.9473   -7.3778 C   0  0  2  0  0  0
   -6.9700    3.3328   -7.5047 C   0  0
   -7.8531    3.1474   -8.7648 C   0  0
   -8.3167    1.7846   -8.6537 O   0  0
   -7.2093    1.0022   -8.1767 C   0  0
   -5.8362    0.1012   -5.8343 N   0  0
   -5.8398   -0.3710   -4.4421 C   0  0
   -5.4890   -1.8610   -4.4134 C   0  0
   -4.2236   -2.0600   -5.0493 O   0  0
   -4.1847   -1.6119   -6.4069 C   0  0
   -4.5223   -0.1194   -6.4558 C   0  0
   -3.7142    2.7511    0.6414 N   0  0
   -4.8286    1.9510    1.1553 C   0  0  1  0  0  0
   -4.6122    1.2013    2.4713 C   0  0
   -5.5161    2.4352    2.4343 C   0  0
   -1.6821    4.5369   -0.2780 N   0  0
   -0.8980    5.3673   -0.7012 O   0  0
   -1.6781    4.2422    0.9038 O   0  0
   -1.8242    4.8013   -2.9747 H   0  0
   -5.9901    1.4630   -3.3717 H   0  0
   -4.1824    2.1193   -5.5406 H   0  0
   -5.3933    3.4341   -5.3623 H   0  0
   -7.2107    1.6515   -5.4440 H   0  0
   -5.2565    1.9476   -7.7516 H   0  0
   -6.2163    4.1149   -7.6785 H   0  0
   -7.5982    3.5332   -6.6242 H   0  0
   -8.7041    3.8438   -8.7362 H   0  0
   -7.2470    3.2715   -9.6743 H   0  0
   -7.5765    0.1983   -7.5218 H   0  0
   -6.6568    0.5806   -9.0293 H   0  0
   -6.8380   -0.2211   -4.0048 H   0  0
   -5.0947    0.1923   -3.8612 H   0  0
   -5.4333   -2.2052   -3.3701 H   0  0
   -6.2621   -2.4317   -4.9488 H   0  0
   -3.1775   -1.7736   -6.8185 H   0  0
   -4.9202   -2.1736   -7.0015 H   0  0
   -4.5503    0.2160   -7.5030 H   0  0
   -3.7556    0.4478   -5.9077 H   0  0
   -3.0000    3.1148    1.2884 H   0  0
   -5.1682    1.6718    0.1470 H   0  0
   -3.6315    1.4338    2.9119 H   0  0
   -5.2002    0.2723    2.5074 H   0  0
   -6.5798    2.1556    2.4513 H   0  0
   -5.0107    3.3174    2.8542 H   0  0
  1  6  2  0
  1  2  1  0
  2  3  2  0
  2 25  1  0
  3  4  1  0
  3 21  1  0
  4  5  2  0
  5  6  1  0
  5  7  1  0
  7  8  1  0
  8  9  1  0
  9 10  1  0
  9 15  1  0
 10 14  1  0
 10 11  1  0
 11 12  1  0
 12 13  1  0
 13 14  1  0
 15 20  1  0
 15 16  1  0
 16 17  1  0
 17 18  1  0
 18 19  1  0
 19 20  1  0
 21 22  1  0
 22 24  1  0
 22 23  1  0
 23 24  1  0
 25 26  2  0
 25 27  2  0
  1 28  1  0
  7 29  1  0
  8 30  1  0
  8 31  1  0
  9 32  1  0
 10 33  1  0
 11 34  1  0
 11 35  1  0
 12 36  1  0
 12 37  1  0
 14 38  1  0
 14 39  1  0
 16 40  1  0
 16 41  1  0
 17 42  1  0
 17 43  1  0
 19 44  1  0
 19 45  1  0
 20 46  1  0
 20 47  1  0
 21 48  1  0
 22 49  1  0
 23 50  1  0
 23 51  1  0
 24 52  1  0
 24 53  1  0
M  END
> <Name>
ZINC26701888

> <reference>
BDB50020397

> <quality>
0.740

> <status>
decoy

$$$$
ZINC28681265
  SciTegic06061311253D

 43 44  0  0  0  0            999 V2000
   14.0930  -10.1178    7.8212 C   0  0
   13.0935   -9.3754    8.2284 C   0  0
   12.9550   -7.9596    7.7311 C   0  0
   11.6283   -7.7783    7.1368 N   0  0
   11.2779   -6.5829    6.6223 C   0  0
   12.0627   -5.6553    6.6514 O   0  0
   10.0574   -6.4161    6.0756 N   0  0
    9.7070   -5.2207    5.5611 C   0  0
   10.4898   -4.2954    5.5901 O   0  0
    8.3423   -5.0342    4.9498 C   0  0
    8.2089   -3.6701    4.4706 O   0  0
    7.0429   -3.3379    3.8945 C   0  0
    6.1630   -4.1597    3.7939 O   0  0
    6.8314   -1.9398    3.3731 C   0  0
    5.4894   -1.8319    2.7955 N   0  0
    5.0764   -0.6641    2.2642 C   0  0
    5.8176    0.2997    2.2643 O   0  0
    3.7243   -0.5554    1.6822 C   0  0
    2.8713   -1.6617    1.6812 C   0  0
    1.6095   -1.5583    1.1379 C   0  0
    1.1808   -0.3565    0.5900 C   0  0
    2.0280    0.7523    0.5881 C   0  0
    3.2942    0.6545    1.1314 C   0  0
    1.3761    1.7972   -0.0014 O   0  0
   -0.0174    1.4354    0.0099 C   0  0
    0.0021   -0.0041    0.0020 O   0  0
   14.8312   -9.7078    7.1163 H   0  0
   14.1941  -11.1512    8.1842 H   0  0
   12.3553   -9.7854    8.9333 H   0  0
   13.0778   -7.2617    8.5724 H   0  0
   13.7262   -7.7591    6.9728 H   0  0
   10.9633   -8.5644    7.1122 H   0  0
    9.3924   -7.2022    6.0510 H   0  0
    8.2190   -5.7316    4.1082 H   0  0
    7.5698   -5.2332    5.7072 H   0  0
    6.9333   -1.2208    4.1994 H   0  0
    7.5816   -1.7183    2.5997 H   0  0
    4.8615   -2.6484    2.7954 H   0  0
    3.2071   -2.6155    2.1142 H   0  0
    0.9394   -2.4306    1.1381 H   0  0
    3.9630    1.5279    1.1304 H   0  0
   -0.5167    1.8131   -0.8945 H   0  0
   -0.4985    1.8036    0.9281 H   0  0
  1  2  2  0
  2  3  1  0
  3  4  1  0
  4  5  1  0
  5  6  2  0
  5  7  1  0
  7  8  1  0
  8  9  2  0
  8 10  1  0
 10 11  1  0
 11 12  1  0
 12 13  2  0
 12 14  1  0
 14 15  1  0
 15 16  1  0
 16 17  2  0
 16 18  1  0
 18 23  2  0
 18 19  1  0
 19 20  2  0
 20 21  1  0
 21 26  1  0
 21 22  2  0
 22 23  1  0
 22 24  1  0
 24 25  1  0
 25 26  1  0
  1 27  1  0
  1 28  1  0
  2 29  1  0
  3 30  1  0
  3 31  1  0
  4 32  1  0
  7 33  1  0
 10 34  1  0
 10 35  1  0
 14 36  1  0
 14 37  1  0
 15 38  1  0
 19 39  1  0
 20 40  1  0
 23 41  1  0
 25 42  1  0
 25 43  1  0
M  END
> <Name>
ZINC28681265

> <reference>
BDB50020397

> <quality>
0.734

> <status>
decoy

$$$$
ZINC05544712
  SciTegic06061311253D

 41 42  0  0  1  0            999 V2000
    4.1591    2.0263    4.1046 C   0  0
    3.4857    3.2526    3.8136 O   0  0
    3.5686    3.9796    2.3795 P   0  0  1  0  0  0
    2.7632    5.2210    2.4084 O   0  0
    5.1021    4.3424    2.0496 O   0  0
    5.8617    5.2808    2.8141 C   0  0
    2.9942    2.9935    1.2438 O   0  0
    1.6294    2.5725    1.1963 C   0  0
    1.4233    1.6448   -0.0027 C   0  0  1  0  0  0
   -0.0127    1.0858    0.0080 C   0  0  2  0  0  0
   -0.6401    1.6264   -1.3000 C   0  0  1  0  0  0
    0.2750    2.8348   -1.6237 C   0  0  1  0  0  0
    1.5866    2.3800   -1.2271 O   0  0
    0.2450    3.1476   -3.0976 C   0  0
   -0.3535    4.2684   -3.6913 C   0  0
   -0.1252    4.1244   -5.0548 C   0  0
    0.5789    2.9562   -5.2005 N   0  0
    0.7771    2.4249   -4.0483 N   0  0
   -0.5511    5.0361   -6.1213 C   0  0
   -1.1749    6.0443   -5.8469 O   0  0
   -0.2517    4.7574   -7.4055 N   0  0
   -1.0137    5.2783   -3.0677 O   0  5
   -0.5775    0.6468   -2.3384 O   0  0
   -0.7290    1.5688    1.1463 O   0  0
    5.2059    2.2504    3.8514 H   0  0
    3.8000    1.3508    3.3142 H   0  0
    4.0298    1.6223    5.1195 H   0  0
    5.7742    4.8952    3.8406 H   0  0
    5.2408    6.1883    2.7833 H   0  0
    6.9010    5.4490    2.4955 H   0  0
    1.3790    2.0347    2.1226 H   0  0
    0.9765    3.4520    1.0949 H   0  0
    2.1602    0.8308    0.0632 H   0  0
   -0.0392   -0.0124    0.0658 H   0  0
   -1.7046    1.8877   -1.2072 H   0  0
   -0.0349    3.7567   -1.1098 H   0  0
    0.8998    2.5647   -6.0975 H   0  0
    0.2763    3.9040   -7.6378 H   0  0
   -0.5509    5.3978   -8.1547 H   0  0
   -1.0678   -0.1619   -2.0457 H   0  0
   -0.7596    2.5578    1.1134 H   0  0
  1  2  1  0
  2  3  1  0
  3  4  2  0
  3  5  1  0
  3  7  1  0
  5  6  1  0
  7  8  1  0
  8  9  1  0
  9 13  1  0
  9 10  1  0
 10 11  1  0
 10 24  1  0
 11 12  1  0
 11 23  1  0
 12 13  1  0
 12 14  1  0
 14 18  2  0
 14 15  1  0
 15 16  2  0
 15 22  1  0
 16 17  1  0
 16 19  1  0
 17 18  1  0
 19 20  2  0
 19 21  1  0
  1 25  1  0
  1 26  1  0
  1 27  1  0
  6 28  1  0
  6 29  1  0
  6 30  1  0
  8 31  1  0
  8 32  1  0
  9 33  1  0
 10 34  1  0
 11 35  1  0
 12 36  1  0
 17 37  1  0
 21 38  1  0
 21 39  1  0
 23 40  1  0
 24 41  1  0
M  CHG  1  22  -1
M  END
> <Name>
ZINC05544712

> <reference>
BDB50020397

> <quality>
0.734

> <status>
decoy

$$$$
ZINC10942588
  SciTegic06061311253D

 46 47  0  0  0  0            999 V2000
   -1.5936   -2.0009    2.4753 C   0  0
   -1.4884   -2.7321    1.1618 C   0  0
   -1.4129   -2.0405    0.0046 C   0  0
   -1.3084   -2.7498   -1.2162 C   0  0
   -1.2343   -2.1478   -2.2723 O   0  0
   -1.2921   -4.0979   -1.1988 N   0  0
   -1.3740   -4.7623   -0.0311 C   0  0
   -1.3577   -5.9781   -0.0308 O   0  0
   -1.4732   -4.1001    1.1359 N   0  0
   -1.4333   -0.5336    0.0129 C   0  0
    0.0021   -0.0041    0.0020 C   0  0
   -0.0184    1.5028    0.0103 C   0  0
   -1.0728    2.0926    0.0185 O   0  0
    1.1348    2.1897    0.0030 O   0  0
    1.0392    3.6385    0.0117 C   0  0
    2.4238    4.2334    0.0017 C   0  0
    3.3954    3.5078   -0.0115 O   0  0
    2.5822    5.5718    0.0073 N   0  0
    3.8568    6.1194   -0.0019 C   0  0
    4.1785    7.4462    0.0022 C   0  0
    5.5879    7.4534   -0.0107 C   0  0
    5.9651    6.2059   -0.0208 N   0  0
    5.0209    5.4508   -0.0107 O   0  0
    6.4831    8.6657   -0.0121 C   0  0  1  0  0  0
    6.6717    9.1588   -1.4482 C   0  0
    5.8432    9.7732    0.8274 C   0  0
   -0.7469   -2.3674    3.0743 H   0  0
   -2.5126   -2.3845    2.9424 H   0  0
   -1.5968   -0.9054    2.3761 H   0  0
   -1.2167   -4.6214   -2.0826 H   0  0
   -1.5383   -4.6278    2.0180 H   0  0
   -1.9648   -0.1690   -0.8785 H   0  0
   -1.9477   -0.1777    0.9177 H   0  0
    0.5341   -0.3680    0.8934 H   0  0
    0.5178   -0.3581   -0.9028 H   0  0
    0.5065    3.9665    0.9165 H   0  0
    0.4896    3.9752   -0.8797 H   0  0
    1.7570    6.1880    0.0184 H   0  0
    3.4963    8.3090    0.0130 H   0  0
    7.4610    8.3998    0.4157 H   0  0
    5.6943    9.4252   -1.8769 H   0  0
    7.1320    8.3633   -2.0526 H   0  0
    7.3251   10.0437   -1.4499 H   0  0
    5.7074    9.4198    1.8602 H   0  0
    4.8653   10.0399    0.4002 H   0  0
    6.4962   10.6584    0.8268 H   0  0
  1  2  1  0
  2  9  1  0
  2  3  2  0
  3  4  1  0
  3 10  1  0
  4  5  2  0
  4  6  1  0
  6  7  1  0
  7  8  2  0
  7  9  1  0
 10 11  1  0
 11 12  1  0
 12 13  2  0
 12 14  1  0
 14 15  1  0
 15 16  1  0
 16 17  2  0
 16 18  1  0
 18 19  1  0
 19 23  1  0
 19 20  2  0
 20 21  1  0
 21 22  2  0
 21 24  1  0
 22 23  1  0
 24 25  1  0
 24 26  1  0
  1 27  1  0
  1 28  1  0
  1 29  1  0
  6 30  1  0
  9 31  1  0
 10 32  1  0
 10 33  1  0
 11 34  1  0
 11 35  1  0
 15 36  1  0
 15 37  1  0
 18 38  1  0
 20 39  1  0
 24 40  1  0
 25 41  1  0
 25 42  1  0
 25 43  1  0
 26 44  1  0
 26 45  1  0
 26 46  1  0
M  END
> <Name>
ZINC10942588

> <reference>
BDB50020397

> <quality>
0.733

> <status>
decoy

$$$$
ZINC25496188
  SciTegic06061311253D

 47 48  0  0  0  0            999 V2000
  -10.6509    7.1437    0.0865 C   0  0
   -9.1383    6.9134    0.0791 C   0  0
   -8.4476    8.2054    0.0838 N   0  0
   -7.0682    8.2504    0.0785 C   0  0
   -6.4413    9.4225    0.0828 N   0  0
   -5.1130    9.4648    0.0777 C   0  0
   -4.4122    8.3345    0.0684 N   0  0
   -5.0390    7.1644    0.0642 C   0  0
   -6.3660    7.1213    0.0638 N   0  0
   -4.3049    5.9822    0.0545 N   0  0
   -4.7965    4.7260    0.0497 C   0  0
   -3.7879    3.8939    0.0353 N   0  0
   -2.6369    4.5766    0.0394 C   0  0
   -2.9057    5.8611    0.0477 N   0  0
   -1.0241    3.8670    0.0279 S   0  0
   -1.3314    2.0792    0.0197 C   0  0
   -0.0162    1.3436    0.0094 C   0  0
    1.0258    1.9642    0.0028 O   0  0
    0.0021   -0.0041    0.0020 N   0  0
    1.1942   -0.6709   -0.0129 N   0  0
   -4.4611   10.6812    0.0816 N   0  0
   -2.9969   10.7275    0.0755 C   0  0  1  0  0  0
   -2.4697   10.0297   -1.1799 C   0  0
   -2.5327   12.1854    0.0816 C   0  0
   -2.4589   10.0158    1.3185 C   0  0
  -10.9400    7.7165   -0.8070 H   0  0
  -10.9328    7.7061    0.9889 H   0  0
  -11.1701    6.1740    0.0830 H   0  0
   -8.8501    6.3409    0.9730 H   0  0
   -8.8563    6.3510   -0.8232 H   0  0
   -8.9914    9.0801    0.0911 H   0  0
   -5.8612    4.4496    0.0567 H   0  0
   -1.8997    1.8006    0.9194 H   0  0
   -1.9086    1.8094   -0.8770 H   0  0
   -0.8828   -0.5312    0.0076 H   0  0
    2.0791   -0.1438   -0.0185 H   0  0
    1.2082   -1.7008   -0.0186 H   0  0
   -5.0040   11.5565    0.0888 H   0  0
   -2.8557   10.5408   -2.0742 H   0  0
   -2.8027    8.9813   -1.1851 H   0  0
   -1.3703   10.0641   -1.1851 H   0  0
   -2.9110   12.6879    0.9840 H   0  0
   -2.9188   12.6979   -0.8118 H   0  0
   -1.4333   12.2209    0.0770 H   0  0
   -2.7919    8.9674    1.3149 H   0  0
   -2.8371   10.5169    2.2217 H   0  0
   -1.3594   10.0502    1.3145 H   0  0
  1  2  1  0
  2  3  1  0
  3  4  1  0
  4  9  2  0
  4  5  1  0
  5  6  2  0
  6  7  1  0
  6 21  1  0
  7  8  2  0
  8  9  1  0
  8 10  1  0
 10 14  1  0
 10 11  1  0
 11 12  2  0
 12 13  1  0
 13 14  2  0
 13 15  1  0
 15 16  1  0
 16 17  1  0
 17 18  2  0
 17 19  1  0
 19 20  1  0
 21 22  1  0
 22 23  1  0
 22 24  1  0
 22 25  1  0
  1 26  1  0
  1 27  1  0
  1 28  1  0
  2 29  1  0
  2 30  1  0
  3 31  1  0
 11 32  1  0
 16 33  1  0
 16 34  1  0
 19 35  1  0
 20 36  1  0
 20 37  1  0
 21 38  1  0
 23 39  1  0
 23 40  1  0
 23 41  1  0
 24 42  1  0
 24 43  1  0
 24 44  1  0
 25 45  1  0
 25 46  1  0
 25 47  1  0
M  END
> <Name>
ZINC25496188

> <reference>
BDB50020397

> <quality>
0.732

> <status>
decoy

$$$$
ZINC02248729
  SciTegic06061311253D

 49 50  0  0  0  0            999 V2000
    9.2731   -0.7948   -5.1750 C   0  0
    8.9147   -2.0416   -4.4858 N   0  3
   10.1054   -2.8637   -4.2319 C   0  0
    8.1907   -1.7641   -3.2381 C   0  0
    6.8385   -1.1268   -3.5641 C   0  0
    6.1165   -0.8501   -2.3197 N   0  0
    4.8933   -0.2849   -2.3616 C   0  0
    4.1639   -0.1284   -1.1976 C   0  0
    4.6098   -0.7227    0.0753 C   0  0
    5.6381   -1.3701    0.1362 O   0  0
    3.8472   -0.5292    1.1710 N   0  0
    2.7152    0.1868    1.1192 C   0  0
    2.0764    0.3284    2.1434 O   0  0
    2.2475    0.7502   -0.0036 N   0  0
    2.9064    0.6395   -1.1754 C   0  0
    2.4739    1.1594   -2.1869 O   0  0
    1.0479    1.4765    0.0423 C   0  0
   -0.1609    0.8364   -0.1863 C   0  0
   -1.3440    1.5576   -0.1456 C   0  0
   -1.3203    2.9159    0.1349 C   0  0
   -0.1168    3.5561    0.3632 C   0  0
    1.0690    2.8412    0.3180 C   0  0
    2.2532    3.4720    0.5432 O   0  0
    2.1996    4.8729    0.8199 C   0  0
   -2.5292    0.9319   -0.3757 O   0  0
   -3.7091    1.7359   -0.3181 C   0  0
    9.7582   -1.0435   -6.1304 H   0  0
    9.9806   -0.2326   -4.5478 H   0  0
    8.3728   -0.1900   -5.3584 H   0  0
    8.2872   -2.5757   -5.1037 H   0  0
   10.8080   -2.2893   -3.6102 H   0  0
   10.5856   -3.1003   -5.1929 H   0  0
    9.8222   -3.7930   -3.7159 H   0  0
    8.0298   -2.7044   -2.6905 H   0  0
    8.7801   -1.0740   -2.6165 H   0  0
    6.9987   -0.1862   -4.1114 H   0  0
    6.2471   -1.8160   -4.1848 H   0  0
    6.5434   -1.0874   -1.4129 H   0  0
    4.4756    0.0518   -3.3219 H   0  0
    4.1415   -0.9411    2.0680 H   0  0
   -0.1809   -0.2425   -0.3997 H   0  0
   -2.2610    3.4845    0.1757 H   0  0
   -0.1005    4.6342    0.5810 H   0  0
    1.5489    4.9898    1.6991 H   0  0
    1.6936    5.3386   -0.0386 H   0  0
    3.1939    5.3113    0.9907 H   0  0
   -3.5707    2.5414   -1.0544 H   0  0
   -3.7237    2.1924    0.6826 H   0  0
   -4.6259    1.1607   -0.5144 H   0  0
  1  2  1  0
  2  3  1  0
  2  4  1  0
  4  5  1  0
  5  6  1  0
  6  7  1  0
  7  8  2  0
  8 15  1  0
  8  9  1  0
  9 10  2  0
  9 11  1  0
 11 12  1  0
 12 13  2  0
 12 14  1  0
 14 15  1  0
 14 17  1  0
 15 16  2  0
 17 22  2  0
 17 18  1  0
 18 19  2  0
 19 20  1  0
 19 25  1  0
 20 21  2  0
 21 22  1  0
 22 23  1  0
 23 24  1  0
 25 26  1  0
  1 27  1  0
  1 28  1  0
  1 29  1  0
  2 30  1  0
  3 31  1  0
  3 32  1  0
  3 33  1  0
  4 34  1  0
  4 35  1  0
  5 36  1  0
  5 37  1  0
  6 38  1  0
  7 39  1  0
 11 40  1  0
 18 41  1  0
 20 42  1  0
 21 43  1  0
 24 44  1  0
 24 45  1  0
 24 46  1  0
 26 47  1  0
 26 48  1  0
 26 49  1  0
M  CHG  1   2   1
M  END
> <Name>
ZINC02248729

> <reference>
BDB50020397

> <quality>
0.731

> <status>
decoy

$$$$
ZINC00643245
  SciTegic06061311253D

 45 46  0  0  1  0            999 V2000
    8.9251    2.7907    2.8900 C   0  0
    7.7384    3.1470    2.0322 C   0  0
    7.5649    4.2917    1.6865 O   0  0
    6.8742    2.1928    1.6524 O   0  0
    5.7543    2.6084    0.8269 C   0  0
    4.8855    1.3931    0.4967 C   0  0  2  0  0  0
    3.7639    1.8016   -0.4824 C   0  0  2  0  0  0
    2.5518    0.9876    0.0467 C   0  0  1  0  0  0
    2.8333    0.9977    1.5704 C   0  0  2  0  0  0
    4.2616    0.9012    1.6885 O   0  0
    2.1911   -0.1511    2.2138 N   0  0
    2.6069   -1.4143    1.9166 C   0  0
    2.0086   -2.4679    2.5213 C   0  0
    0.9626   -2.2269    3.4356 C   0  0
    0.5883   -0.9799    3.6900 N   0  0
    1.1899    0.0463    3.0910 C   0  0
    0.8277    1.1837    3.3419 O   0  0
    0.3336   -3.2790    4.0600 N   0  0
    1.2993    1.6558   -0.2584 O   0  0
    0.2191    0.8774   -0.4287 C   0  0
    0.3342   -0.3253   -0.4236 O   0  0
   -1.1364    1.5038   -0.6323 C   0  0
    4.0958    1.4103   -1.8407 O   0  0
    4.6375    2.3507   -2.6307 C   0  0
    4.8279    3.4639   -2.2014 O   0  0
    5.0080    2.0179   -4.0530 C   0  0
    8.8400    3.4227    3.7863 H   0  0
    9.8071    3.1283    2.3260 H   0  0
    8.9743    1.7202    3.1384 H   0  0
    6.1303    3.0537   -0.1060 H   0  0
    5.1529    3.3512    1.3715 H   0  0
    5.5276    0.6199    0.0497 H   0  0
    3.5850    2.8862   -0.5228 H   0  0
    2.4509   -0.0163   -0.3915 H   0  0
    2.4388    1.9018    2.0572 H   0  0
    3.4197   -1.5764    1.1934 H   0  0
    2.3336   -3.4958    2.3026 H   0  0
    0.6281   -4.2452    3.8586 H   0  0
   -0.4303   -3.1014    4.7276 H   0  0
   -1.0210    2.1610   -1.5068 H   0  0
   -1.2892    2.1500    0.2447 H   0  0
   -1.9473    0.7717   -0.7611 H   0  0
    4.0797    1.6481   -4.5129 H   0  0
    5.6984    1.1648   -3.9782 H   0  0
    5.4431    2.8632   -4.6062 H   0  0
  1  2  1  0
  2  3  2  0
  2  4  1  0
  4  5  1  0
  5  6  1  0
  6 10  1  0
  6  7  1  0
  7  8  1  0
  7 23  1  0
  8  9  1  0
  8 19  1  0
  9 10  1  0
  9 11  1  0
 11 16  1  0
 11 12  1  0
 12 13  2  0
 13 14  1  0
 14 15  2  0
 14 18  1  0
 15 16  1  0
 16 17  2  0
 19 20  1  0
 20 21  2  0
 20 22  1  0
 23 24  1  0
 24 25  2  0
 24 26  1  0
  1 27  1  0
  1 28  1  0
  1 29  1  0
  5 30  1  0
  5 31  1  0
  6 32  1  0
  7 33  1  0
  8 34  1  0
  9 35  1  0
 12 36  1  0
 13 37  1  0
 18 38  1  0
 18 39  1  0
 22 40  1  0
 22 41  1  0
 22 42  1  0
 26 43  1  0
 26 44  1  0
 26 45  1  0
M  END
> <Name>
ZINC00643245

> <reference>
BDB50020397

> <quality>
0.723

> <status>
decoy

$$$$
ZINC20157728
  SciTegic06061311253D

 44 44  0  0  0  0            999 V2000
    1.9003    7.9684   -0.2650 C   0  0
    3.3272    7.4851   -0.3055 C   0  0
    4.2853    8.3271   -0.4155 N   0  0
    4.0073    9.6978   -0.4983 N   0  0
    5.0159   10.5842   -0.6140 C   0  0
    6.1655   10.1948   -0.6467 O   0  0
    4.7198   12.0446   -0.7022 C   0  0
    3.5707   12.4338   -0.6696 O   0  0
    5.7284   12.9310   -0.8180 N   0  0
    5.4378   14.3642   -0.9045 C   0  0
    6.7484   15.1439   -1.0286 C   0  0
    7.3850   14.8119   -2.2642 O   0  0
    3.6262    6.0108   -0.2165 C   0  0
    2.3353    5.2429   -0.0943 C   0  0
    1.2766    5.8347   -0.0808 O   0  0
    2.3571    3.8986    0.0000 N   0  0
    1.1556    3.1780    0.0196 C   0  0
    0.0345    3.7121    0.6379 C   0  0
   -1.1504    2.9991    0.6554 C   0  0
   -1.2220    1.7557    0.0524 C   0  0
   -0.1067    1.2155   -0.5604 C   0  0
    1.0837    1.9238   -0.5821 C   0  0
    2.1798    1.3959   -1.1899 O   0  0
    2.0325    0.1057   -1.7863 C   0  0
   -2.5527    3.6685    1.4295 Cl  0  0
    1.4925    7.5617    0.6722 H   0  0
    1.4002    7.4367   -1.0879 H   0  0
    1.7896    9.0605   -0.3367 H   0  0
    5.2605    7.9968   -0.4431 H   0  0
    3.0321   10.0281   -0.4707 H   0  0
    6.7036   12.6007   -0.8457 H   0  0
    4.9046   14.6867    0.0020 H   0  0
    4.8111   14.5588   -1.7873 H   0  0
    6.5369   16.2231   -1.0041 H   0  0
    7.4131   14.8814   -0.1924 H   0  0
    6.7884   15.0486   -3.0179 H   0  0
    4.6313    5.5642   -0.2375 H   0  0
    3.2571    3.4009    0.0577 H   0  0
    0.0879    4.7023    1.1140 H   0  0
   -2.1687    1.1957    0.0607 H   0  0
   -0.1645    0.2229   -1.0309 H   0  0
    1.2151    0.1943   -2.5170 H   0  0
    1.6970   -0.5690   -0.9849 H   0  0
    2.9594   -0.2538   -2.2570 H   0  0
  1  2  1  0
  2 13  2  0
  2  3  1  0
  3  4  1  0
  4  5  1  0
  5  6  2  0
  5  7  1  0
  7  8  2  0
  7  9  1  0
  9 10  1  0
 10 11  1  0
 11 12  1  0
 13 14  1  0
 14 15  2  0
 14 16  1  0
 16 17  1  0
 17 22  2  0
 17 18  1  0
 18 19  2  0
 19 20  1  0
 19 25  1  0
 20 21  2  0
 21 22  1  0
 22 23  1  0
 23 24  1  0
  1 26  1  0
  1 27  1  0
  1 28  1  0
  3 29  1  0
  4 30  1  0
  9 31  1  0
 10 32  1  0
 10 33  1  0
 11 34  1  0
 11 35  1  0
 12 36  1  0
 13 37  1  0
 16 38  1  0
 18 39  1  0
 20 40  1  0
 21 41  1  0
 24 42  1  0
 24 43  1  0
 24 44  1  0
M  END
> <Name>
ZINC20157728

> <reference>
BDB50020397

> <quality>
0.722

> <status>
decoy

$$$$
ZINC21453733
  SciTegic06061311253D

 46 48  0  0  0  0            999 V2000
    9.3159   -1.0422  -13.7486 C   0  0
    9.0367    0.0742  -12.7756 C   0  0
    8.5027    1.3267  -13.0958 C   0  0
    8.4055    2.0427  -11.9517 C   0  0
    8.8619    1.2707  -10.9433 N   0  0
    9.2576    0.0416  -11.4864 N   0  0
    8.9362    1.6528   -9.5310 C   0  0
    7.6502    1.2777   -8.8407 C   0  0
    6.7593    0.7437   -9.4669 O   0  0
    7.4901    1.5356   -7.5276 N   0  0
    6.2399    1.1709   -6.8566 C   0  0
    6.3175    1.5700   -5.3816 C   0  0
    5.0674    1.2053   -4.7106 N   0  0
    4.9073    1.4632   -3.3974 C   0  0
    5.7997    1.9981   -2.7702 O   0  0
    3.6422    1.0942   -2.7184 C   0  0
    3.3451    1.2884   -1.4492 N   0  0
    2.1077    0.7967   -1.2888 C   0  0
    1.7119    0.3429   -2.4420 N   0  0
    2.5760    0.5027   -3.2782 O   0  0
    1.3165    0.7789   -0.0063 C   0  0  1  0  0  0
   -0.0187    1.5258    0.0104 C   0  0
    0.0021   -0.0041    0.0020 C   0  0
    7.8812    3.4500  -11.8261 C   0  0
    8.1132    1.7877  -14.4474 N   0  0
    8.9267    2.3531  -15.1559 O   0  0
    6.9792    1.6016  -14.8510 O   0  0
    8.7619   -1.8880  -13.3154 H   0  0
   10.3814   -1.2551  -13.5769 H   0  0
    9.0665   -0.8386  -14.8004 H   0  0
    9.0908    2.7390   -9.4515 H   0  0
    9.7755    1.1270   -9.0524 H   0  0
    8.2467    1.9891   -6.9958 H   0  0
    5.4002    1.6967   -7.3345 H   0  0
    6.0842    0.0847   -6.9341 H   0  0
    7.1568    1.0442   -4.9030 H   0  0
    6.4721    2.6562   -5.3021 H   0  0
    4.3108    0.7518   -5.2424 H   0  0
    2.2212    0.7877    0.6194 H   0  0
   -0.2674    1.9304   -0.9818 H   0  0
   -0.2476    1.9199    1.0116 H   0  0
   -0.2167   -0.4151    0.9986 H   0  0
   -0.2348   -0.4045   -0.9948 H   0  0
    6.8858    3.3768  -12.2885 H   0  0
    8.5060    4.0031  -12.5428 H   0  0
    7.8739    3.8799  -10.8136 H   0  0
  1  2  1  0
  2  6  2  0
  2  3  1  0
  3  4  2  0
  3 25  1  0
  4  5  1  0
  4 24  1  0
  5  6  1  0
  5  7  1  0
  7  8  1  0
  8  9  2  0
  8 10  1  0
 10 11  1  0
 11 12  1  0
 12 13  1  0
 13 14  1  0
 14 15  2  0
 14 16  1  0
 16 20  1  0
 16 17  2  0
 17 18  1  0
 18 19  2  0
 18 21  1  0
 19 20  1  0
 21 23  1  0
 21 22  1  0
 22 23  1  0
 25 26  2  0
 25 27  2  0
  1 28  1  0
  1 29  1  0
  1 30  1  0
  7 31  1  0
  7 32  1  0
 10 33  1  0
 11 34  1  0
 11 35  1  0
 12 36  1  0
 12 37  1  0
 13 38  1  0
 21 39  1  0
 22 40  1  0
 22 41  1  0
 23 42  1  0
 23 43  1  0
 24 44  1  0
 24 45  1  0
 24 46  1  0
M  END
> <Name>
ZINC21453733

> <reference>
BDB50020397

> <quality>
0.720

> <status>
decoy

$$$$
ZINC30160149
  SciTegic06061311253D

 41 41  0  0  1  0            999 V2000
   -2.3612    5.1543    6.2870 C   0  0
   -1.9184    4.0026    5.8469 C   0  0
   -2.8088    3.1248    5.0056 C   0  0
   -2.1023    2.7943    3.6893 C   0  0
   -2.9926    1.9164    2.8480 C   0  0
   -4.1568    1.5658    3.2879 N   0  0
   -4.9480    0.6538    2.5480 O   0  0
   -6.2373    0.2451    3.2458 S   0  0
   -6.8132   -0.7903    2.4612 O   0  0
   -5.9183    0.0720    4.6197 O   0  0
   -7.1878    1.4311    3.1661 O   0  5
   -2.4471    1.3679    1.2650 S   0  0
   -0.7615    2.0274    1.2674 C   0  0  1  0  0  0
    0.0554    1.3450    0.1672 C   0  0  1  0  0  0
    1.4619    1.9508    0.1361 C   0  0  2  0  0  0
    1.3498    3.4635   -0.0766 C   0  0  1  0  0  0
    0.4829    4.0642    1.0330 C   0  0  2  0  0  0
   -0.8004    3.4354    1.0262 O   0  0
    0.3164    5.5662    0.7939 C   0  0
   -0.3937    6.1471    1.8895 O   0  0
    2.6525    4.0495   -0.0349 O   0  0
    2.2091    1.3698   -0.9345 O   0  0
    0.1444   -0.0554    0.4375 O   0  0
   -3.3828    5.4807    6.0425 H   0  0
   -1.7113    5.7951    6.9011 H   0  0
   -0.8968    3.6763    6.0914 H   0  0
   -3.0248    2.1932    5.5492 H   0  0
   -3.7505    3.6522    4.7931 H   0  0
   -1.1608    2.2659    3.8998 H   0  0
   -1.8864    3.7255    3.1450 H   0  0
   -0.2944    1.8349    2.2445 H   0  0
   -0.4345    1.4971   -0.8059 H   0  0
    1.9755    1.7474    1.0873 H   0  0
    0.8910    3.6665   -1.0555 H   0  0
    0.9672    3.9000    2.0069 H   0  0
    1.3073    6.0362    0.7094 H   0  0
   -0.2478    5.7302   -0.1360 H   0  0
    0.1134    6.0012    2.7272 H   0  0
    3.2145    3.6572   -0.7493 H   0  0
    1.7525    1.5530   -1.7936 H   0  0
   -0.7651   -0.4457    0.4626 H   0  0
  1  2  2  0
  2  3  1  0
  3  4  1  0
  4  5  1  0
  5  6  2  0
  5 12  1  0
  6  7  1  0
  7  8  1  0
  8  9  2  0
  8 10  2  0
  8 11  1  0
 12 13  1  0
 13 18  1  0
 13 14  1  0
 14 15  1  0
 14 23  1  0
 15 16  1  0
 15 22  1  0
 16 17  1  0
 16 21  1  0
 17 18  1  0
 17 19  1  0
 19 20  1  0
  1 24  1  0
  1 25  1  0
  2 26  1  0
  3 27  1  0
  3 28  1  0
  4 29  1  0
  4 30  1  0
 13 31  1  0
 14 32  1  0
 15 33  1  0
 16 34  1  0
 17 35  1  0
 19 36  1  0
 19 37  1  0
 20 38  1  0
 21 39  1  0
 22 40  1  0
 23 41  1  0
M  CHG  1  11  -1
M  END
> <Name>
ZINC30160149

> <reference>
BDB50020397

> <quality>
0.716

> <status>
decoy

$$$$
ZINC31834886
  SciTegic06061311253D

 50 51  0  0  1  0            999 V2000
    2.7324    4.4908    0.0006 C   0  0
    1.2282    4.4002    0.0140 C   0  0
    0.4665    5.5310    0.0273 C   0  0
   -0.9336    5.4285    0.0402 C   0  0
   -1.6108    6.4429    0.0521 O   0  0
   -1.5388    4.2268    0.0390 N   0  0
   -0.8092    3.0801    0.0263 C   0  0
    0.5880    3.1476    0.0134 C   0  0
    1.0771    1.7635    0.0012 C   0  0
    2.2397    1.4048   -0.0112 O   0  0
   -0.0111    0.9658    0.0074 N   0  5
   -1.1607    1.7615    0.0165 N   0  0
   -2.5357    1.2558    0.0196 C   0  0
    1.1254    6.8864    0.0278 C   0  0
    1.2211    7.4074   -1.4075 C   0  0
    1.8800    8.7628   -1.4070 C   0  0
    2.2377    9.2627   -0.3616 O   0  0
    2.0716    9.4193   -2.5683 N   0  0
    2.7121   10.7369   -2.5679 C   0  0
    2.8078   11.2580   -4.0032 C   0  0
    3.4483   12.5755   -4.0027 N   0  0
    3.6400   13.2321   -5.1641 C   0  0
    3.2822   12.7321   -6.2095 O   0  0
    4.2988   14.5874   -5.1636 C   0  0  1  0  0  0
    5.7035   14.4714   -4.5684 C   0  0
    4.3945   15.1085   -6.5989 C   0  0
    3.0399    3.9223   -0.8895 H   0  0
    3.0562    3.9131    0.8789 H   0  0
    3.1219    5.5195    0.0023 H   0  0
   -2.5675    4.1752    0.0478 H   0  0
   -2.9831    1.7558   -0.8521 H   0  0
   -2.9734    1.7401    0.9049 H   0  0
   -2.6513    0.1619    0.0105 H   0  0
    0.5274    7.5848    0.6317 H   0  0
    2.1356    6.8041    0.4553 H   0  0
    0.2116    7.4914   -1.8363 H   0  0
    1.8194    6.7097   -2.0119 H   0  0
    1.7677    8.9947   -3.4561 H   0  0
    2.1141   11.4353   -1.9640 H   0  0
    3.7223   10.6546   -2.1404 H   0  0
    3.4060   10.5603   -4.6076 H   0  0
    1.7983   11.3420   -4.4320 H   0  0
    3.7521   13.0001   -3.1148 H   0  0
    3.7010   15.2855   -4.5592 H   0  0
    6.3023   13.7737   -5.1723 H   0  0
    5.6358   14.0971   -3.5363 H   0  0
    6.1850   15.4604   -4.5677 H   0  0
    3.3850   15.1925   -7.0277 H   0  0
    4.9924   14.4112   -7.2041 H   0  0
    4.8753   16.0978   -6.5992 H   0  0
  1  2  1  0
  2  8  1  0
  2  3  2  0
  3  4  1  0
  3 14  1  0
  4  5  2  0
  4  6  1  0
  6  7  1  0
  7 12  1  0
  7  8  2  0
  8  9  1  0
  9 10  2  0
  9 11  1  0
 11 12  1  0
 12 13  1  0
 14 15  1  0
 15 16  1  0
 16 17  2  0
 16 18  1  0
 18 19  1  0
 19 20  1  0
 20 21  1  0
 21 22  1  0
 22 23  2  0
 22 24  1  0
 24 25  1  0
 24 26  1  0
  1 27  1  0
  1 28  1  0
  1 29  1  0
  6 30  1  0
 13 31  1  0
 13 32  1  0
 13 33  1  0
 14 34  1  0
 14 35  1  0
 15 36  1  0
 15 37  1  0
 18 38  1  0
 19 39  1  0
 19 40  1  0
 20 41  1  0
 20 42  1  0
 21 43  1  0
 24 44  1  0
 25 45  1  0
 25 46  1  0
 25 47  1  0
 26 48  1  0
 26 49  1  0
 26 50  1  0
M  CHG  1  11  -1
M  END
> <Name>
ZINC31834886

> <reference>
BDB50020397

> <quality>
0.716

> <status>
decoy

$$$$
ZINC11807976
  SciTegic06061311253D

 47 48  0  0  0  0            999 V2000
    5.9158   -6.5625   11.6047 C   0  0
    5.3313   -5.7105   10.4763 C   0  0
    3.8494   -5.4472   10.7512 C   0  0
    3.2736   -4.6081    9.6397 C   0  0
    2.1830   -4.9153    8.8739 N   0  0
    2.0358   -3.8726    8.0048 C   0  0
    2.9992   -3.0186    8.2622 N   0  0
    3.7228   -3.4555    9.2304 N   0  0
    0.7927   -3.7079    6.7670 S   0  0
    1.2620   -2.1086    6.0611 C   0  0
    0.3094   -1.7513    4.9494 C   0  0
   -0.5988   -2.5048    4.6621 O   0  0
    0.4726   -0.5410    4.2421 C   0  0
   -0.3232   -0.2421    3.1225 C   0  0
   -0.1246    0.9398    2.4677 N   0  0
    0.8035    1.8178    2.8788 C   0  0
    0.9376    2.8583    2.2649 O   0  0
    1.5892    1.5893    3.9436 N   0  0
    1.4754    0.4491    4.6555 C   0  0
    2.1885    0.2454    5.6206 O   0  0
    2.5826    2.5914    4.3375 C   0  0
   -0.9453    1.2583    1.2967 C   0  0
   -0.2555    0.7384    0.0338 C   0  0
   -1.1126    1.0710   -1.1892 C   0  0
   -1.2724   -1.1182    2.6953 N   0  0
    5.3778   -7.5204   11.6587 H   0  0
    5.8102   -6.0290   12.5608 H   0  0
    6.9813   -6.7522   11.4077 H   0  0
    5.8696   -4.7527   10.4233 H   0  0
    5.4369   -6.2440    9.5201 H   0  0
    3.3104   -6.4046   10.8040 H   0  0
    3.7419   -4.9126   11.7066 H   0  0
    1.5948   -5.7583    8.9392 H   0  0
    2.2849   -2.1691    5.6612 H   0  0
    1.2189   -1.3358    6.8428 H   0  0
    2.0121    3.5181    4.4981 H   0  0
    3.2107    2.7429    3.4473 H   0  0
    3.1724    2.3058    5.2210 H   0  0
   -1.9309    0.7806    1.3986 H   0  0
   -1.0721    2.3484    1.2220 H   0  0
    0.7300    1.2161   -0.0689 H   0  0
   -0.1288   -0.3519    0.1063 H   0  0
   -1.2394    2.1611   -1.2639 H   0  0
   -2.0986    0.5939   -1.0880 H   0  0
   -0.6172    0.6975   -2.0975 H   0  0
   -1.4073   -2.0071    3.1978 H   0  0
   -1.8533   -0.8951    1.8745 H   0  0
  1  2  1  0
  2  3  1  0
  3  4  1  0
  4  8  2  0
  4  5  1  0
  5  6  1  0
  6  7  2  0
  6  9  1  0
  7  8  1  0
  9 10  1  0
 10 11  1  0
 11 12  2  0
 11 13  1  0
 13 19  1  0
 13 14  2  0
 14 15  1  0
 14 25  1  0
 15 16  1  0
 15 22  1  0
 16 17  2  0
 16 18  1  0
 18 19  1  0
 18 21  1  0
 19 20  2  0
 22 23  1  0
 23 24  1  0
  1 26  1  0
  1 27  1  0
  1 28  1  0
  2 29  1  0
  2 30  1  0
  3 31  1  0
  3 32  1  0
  5 33  1  0
 10 34  1  0
 10 35  1  0
 21 36  1  0
 21 37  1  0
 21 38  1  0
 22 39  1  0
 22 40  1  0
 23 41  1  0
 23 42  1  0
 24 43  1  0
 24 44  1  0
 24 45  1  0
 25 46  1  0
 25 47  1  0
M  END
> <Name>
ZINC11807976

> <reference>
BDB50020397

> <quality>
0.713

> <status>
decoy

$$$$
ZINC27727469
  SciTegic06061311253D

 47 48  0  0  1  0            999 V2000
   -6.8040    8.3361    2.5865 C   0  0
   -5.2852    8.5197    2.6057 C   0  0  1  0  0  0
   -4.8931    9.3357    3.8105 C   0  0
   -4.1449    8.8681    4.6419 O   0  0
   -5.3742   10.5854    3.9636 N   0  0
   -5.0234   11.3151    5.0411 C   0  0
   -4.2734   10.8463    5.8746 O   0  0
   -5.5045   12.5647    5.1943 N   0  0
   -5.1233   13.3580    6.3654 C   0  0  2  0  0  0
   -6.0917   13.0759    7.5327 C   0  0
   -6.2603   14.4502    8.2269 C   0  0
   -6.2807   15.4362    7.0326 C   0  0
   -5.2434   14.8587    6.0475 C   0  0
   -4.6413    7.2200    2.6710 O   0  0
   -4.3500    6.6249    1.5036 C   0  0
   -4.6239    7.1720    0.4618 O   0  0
   -3.6812    5.2745    1.4925 C   0  0
   -3.4629    4.8253    0.0463 C   0  0
   -2.8128    3.5126    0.0355 N   0  0
   -1.4650    3.2737    0.0322 C   0  0
   -1.3063    1.9364    0.0188 C   0  0
   -2.5240    1.3741    0.0220 N   0  0
   -3.4312    2.3121    0.0320 C   0  0
   -0.0144    1.2138    0.0087 N   0  0
    0.0021   -0.0041    0.0020 O   0  0
    1.0320    1.8371    0.0021 O   0  0
   -7.2928    9.3203    2.5367 H   0  0
   -7.1230    7.8148    3.5011 H   0  0
   -7.0909    7.7405    1.7073 H   0  0
   -4.9673    9.0408    1.6906 H   0  0
   -6.0099   10.9827    3.2572 H   0  0
   -6.1402   12.9620    4.4879 H   0  0
   -4.0904   13.0897    6.6320 H   0  0
   -5.6446   12.3526    8.2306 H   0  0
   -7.0603   12.7269    7.1453 H   0  0
   -7.2167   14.4889    8.7689 H   0  0
   -5.3981   14.6583    8.8775 H   0  0
   -5.9709   16.4387    7.3628 H   0  0
   -7.2778   15.4475    6.5681 H   0  0
   -5.5944   14.9957    5.0141 H   0  0
   -4.2715   15.3514    6.1982 H   0  0
   -2.7105    5.3417    2.0055 H   0  0
   -4.3197    4.5436    2.0102 H   0  0
   -2.8236    5.5545   -0.4728 H   0  0
   -4.4333    4.7575   -0.4672 H   0  0
   -0.6652    4.0289    0.0392 H   0  0
   -4.5194    2.1515    0.0368 H   0  0
  1  2  1  0
  2  3  1  0
  2 14  1  0
  3  4  2  0
  3  5  1  0
  5  6  1  0
  6  7  2  0
  6  8  1  0
  8  9  1  0
  9 13  1  0
  9 10  1  0
 10 11  1  0
 11 12  1  0
 12 13  1  0
 14 15  1  0
 15 16  2  0
 15 17  1  0
 17 18  1  0
 18 19  1  0
 19 23  1  0
 19 20  1  0
 20 21  2  0
 21 22  1  0
 21 24  1  0
 22 23  2  0
 24 25  2  0
 24 26  2  0
  1 27  1  0
  1 28  1  0
  1 29  1  0
  2 30  1  0
  5 31  1  0
  8 32  1  0
  9 33  1  0
 10 34  1  0
 10 35  1  0
 11 36  1  0
 11 37  1  0
 12 38  1  0
 12 39  1  0
 13 40  1  0
 13 41  1  0
 17 42  1  0
 17 43  1  0
 18 44  1  0
 18 45  1  0
 20 46  1  0
 23 47  1  0
M  END
> <Name>
ZINC27727469

> <reference>
BDB50020397

> <quality>
0.711

> <status>
decoy

$$$$
ZINC04002978
  SciTegic06061311253D

 51 52  0  0  0  0            999 V2000
   -4.4139    1.4023    3.0440 C   0  0
   -4.3292    0.7637    1.6562 C   0  0
   -3.0567    0.0786    1.5155 O   0  0
   -2.7751   -0.4475    0.3065 C   0  0
   -3.5339   -0.2678   -0.6263 O   0  0
   -1.5515   -1.2378    0.1163 C   0  0
   -1.6067   -2.6374    0.1694 C   0  0
   -0.4314   -3.3658   -0.0081 C   0  0
    0.8181   -2.6432   -0.2498 C   0  0
    1.8579   -3.2576   -0.4075 O   0  0
    0.8157   -1.2976   -0.2969 N   0  0
   -0.3313   -0.5917   -0.1235 C   0  0
   -0.2941    0.7702   -0.1780 N   0  0
   -1.4754    1.5095   -0.0335 N   0  0
   -1.4543    2.7824   -0.1683 C   0  0
   -0.1813    3.5078   -0.5511 C   0  0
   -0.5081    4.4621   -1.7111 C   0  0
   -2.8655    4.5619   -1.1373 C   0  0
   -2.7001    3.6137    0.0559 C   0  0
   -1.8210    6.4073   -2.3048 C   0  0
   -0.4468   -4.8320    0.0459 C   0  0
   -1.4909   -5.4220    0.2473 O   0  0
    0.6967   -5.5252   -0.1279 O   0  0
    0.6065   -6.9729   -0.0616 C   0  0
    1.9934   -7.5808   -0.2804 C   0  0
   -1.6206    5.3456   -1.2981 N   0  3
   -3.5937    2.1249    3.1669 H   0  0
   -4.3318    0.6210    3.8139 H   0  0
   -5.3777    1.9215    3.1513 H   0  0
   -5.1495    0.0411    1.5343 H   0  0
   -4.4113    1.5450    0.8862 H   0  0
   -2.5620   -3.1527    0.3482 H   0  0
    1.6986   -0.7953   -0.4673 H   0  0
    0.6024    1.2555   -0.3254 H   0  0
    0.5779    2.7803   -0.8741 H   0  0
    0.1891    4.0849    0.3090 H   0  0
    0.3770    5.0707   -1.9483 H   0  0
   -0.8088    3.8803   -2.5949 H   0  0
   -3.7084    5.2441   -0.9530 H   0  0
   -3.0525    3.9768   -2.0498 H   0  0
   -3.5772    2.9538    0.1272 H   0  0
   -2.5934    4.1997    0.9807 H   0  0
   -2.0589    5.9481   -3.2756 H   0  0
   -0.8985    6.9991   -2.3982 H   0  0
   -2.6487    7.0618   -1.9942 H   0  0
   -0.0789   -7.3348   -0.8421 H   0  0
    0.2275   -7.2719    0.9268 H   0  0
    2.6800   -7.2208    0.5000 H   0  0
    2.3738   -7.2827   -1.2685 H   0  0
    1.9258   -8.6776   -0.2303 H   0  0
   -1.3820    5.7781   -0.3943 H   0  0
  1  2  1  0
  2  3  1  0
  3  4  1  0
  4  5  2  0
  4  6  1  0
  6 12  2  0
  6  7  1  0
  7  8  2  0
  8  9  1  0
  8 21  1  0
  9 10  2  0
  9 11  1  0
 11 12  1  0
 12 13  1  0
 13 14  1  0
 14 15  2  0
 15 19  1  0
 15 16  1  0
 16 17  1  0
 17 26  1  0
 18 19  1  0
 18 26  1  0
 20 26  1  0
 21 22  2  0
 21 23  1  0
 23 24  1  0
 24 25  1  0
  1 27  1  0
  1 28  1  0
  1 29  1  0
  2 30  1  0
  2 31  1  0
  7 32  1  0
 11 33  1  0
 13 34  1  0
 16 35  1  0
 16 36  1  0
 17 37  1  0
 17 38  1  0
 18 39  1  0
 18 40  1  0
 19 41  1  0
 19 42  1  0
 20 43  1  0
 20 44  1  0
 20 45  1  0
 24 46  1  0
 24 47  1  0
 25 48  1  0
 25 49  1  0
 25 50  1  0
 26 51  1  0
M  CHG  1  26   1
M  END
> <Name>
ZINC04002978

> <reference>
BDB50020397

> <quality>
0.710

> <status>
decoy

$$$$
ZINC05827461
  SciTegic06061311253D

 37 37  0  0  0  0            999 V2000
   -2.4213   -0.3091   -0.0928 C   0  0
   -2.4368    1.1978   -0.0843 C   0  0
   -1.2884    1.8996    0.2360 C   0  0
   -1.2583    3.3246    0.0983 C   0  0
   -1.2344    4.4551   -0.0109 N   0  0
   -0.1430    1.2088    0.7000 C   0  0
   -0.2014    0.0165    0.9217 O   0  0
    1.1505    1.9523    0.9126 C   0  0
    2.1682    1.0286    1.3812 O   0  0
    3.3878    1.5358    1.6204 C   0  0
    3.5980    2.7125    1.4441 O   0  0
    4.4948    0.6375    2.1089 C   0  0
    5.7168    1.4244    2.2929 N   0  5
    6.9803    0.8003    3.1627 S   0  0
    8.0120    1.7771    3.1380 O   0  0
    6.4318    0.3021    4.3752 O   0  0
    7.5863   -0.5948    2.2733 C   0  0
    7.0682   -1.8538    2.5231 C   0  0
    7.5422   -2.9489    1.8205 C   0  0
    8.5392   -2.7866    0.8772 C   0  0
    9.0607   -1.5307    0.6304 C   0  0
    8.5849   -0.4335    1.3284 C   0  0
    9.0954    0.7939    1.0876 F   0  0
    6.0974   -2.0136    3.4490 F   0  0
   -3.5706    1.8625   -0.3891 N   0  0
   -2.0860   -0.5971    0.9145 H   0  0
   -1.6185   -0.5827   -0.7933 H   0  0
   -3.3869   -0.7627   -0.3609 H   0  0
    1.4746    2.4034   -0.0369 H   0  0
    1.0011    2.7433    1.6623 H   0  0
    4.6782   -0.1557    1.3692 H   0  0
    4.2032    0.1843    3.0679 H   0  0
    7.1251   -3.9483    2.0132 H   0  0
    8.9179   -3.6577    0.3224 H   0  0
    9.8540   -1.4027   -0.1208 H   0  0
   -4.4256    1.3400   -0.6276 H   0  0
   -3.5812    2.8924   -0.3833 H   0  0
  1  2  1  0
  2  3  2  0
  2 25  1  0
  3  4  1  0
  3  6  1  0
  4  5  3  0
  6  7  2  0
  6  8  1  0
  8  9  1  0
  9 10  1  0
 10 11  2  0
 10 12  1  0
 12 13  1  0
 13 14  1  0
 14 15  2  0
 14 16  2  0
 14 17  1  0
 17 22  2  0
 17 18  1  0
 18 19  2  0
 18 24  1  0
 19 20  1  0
 20 21  2  0
 21 22  1  0
 22 23  1  0
  1 26  1  0
  1 27  1  0
  1 28  1  0
  8 29  1  0
  8 30  1  0
 12 31  1  0
 12 32  1  0
 19 33  1  0
 20 34  1  0
 21 35  1  0
 25 36  1  0
 25 37  1  0
M  CHG  1  13  -1
M  END
> <Name>
ZINC05827461

> <reference>
BDB50020397

> <quality>
0.706

> <status>
decoy

$$$$
ZINC31723398
  SciTegic06061311253D

 51 52  0  0  1  0            999 V2000
    3.1599    4.8170   -5.0783 C   0  0
    4.3116    5.7424   -4.6806 C   0  0  2  0  0  0
    5.6608    4.9604   -4.5035 C   0  0  1  0  0  0
    6.5548    6.0683   -3.8672 C   0  0
    5.5785    6.9094   -2.9788 C   0  0
    4.1974    6.2168   -3.1889 C   0  0  2  0  0  0
    4.3266    4.8539   -2.4424 C   0  0  2  0  0  0
    5.2958    4.0219   -3.3130 C   0  0
    3.0541    4.2093   -2.3584 O   0  0
    2.8963    3.3828   -1.2034 C   0  0
    1.5047    2.7470   -1.2175 C   0  0
    1.3358    1.8621    0.0192 C   0  0
    0.0034    1.2533    0.0057 N   0  3
   -0.1212   -0.0271   -0.1270 C   0  0
   -1.4772   -0.6704    0.0093 C   0  0
   -2.7195    0.6052    0.3558 S   0  0
   -2.8623    1.6491   -1.4027 S   0  0
   -3.6655    2.7901   -1.1337 O   0  0
   -1.5438    1.7511   -1.9227 O   0  0
   -3.6485    0.7838   -2.3772 O   0  5
    0.9795   -0.7987   -0.3914 N   0  0
    2.9676    7.0571   -2.8389 C   0  0
    4.4516    6.9196   -5.6479 C   0  0
    2.2140    5.3599   -4.9351 H   0  0
    3.1718    3.9426   -4.4110 H   0  0
    3.2616    4.4983   -6.1262 H   0  0
    6.0923    4.4572   -5.3813 H   0  0
    7.3342    5.6104   -3.2404 H   0  0
    6.9884    6.7028   -4.6542 H   0  0
    5.8773    6.8459   -1.9221 H   0  0
    5.5391    7.9489   -3.3364 H   0  0
    4.6899    4.9748   -1.4112 H   0  0
    6.1993    3.7718   -2.7375 H   0  0
    4.7884    3.1198   -3.6854 H   0  0
    3.6604    2.5916   -1.2114 H   0  0
    3.0103    3.9936   -0.2957 H   0  0
    0.7400    3.5377   -1.2091 H   0  0
    1.3892    2.1348   -2.1241 H   0  0
    1.4498    2.4729    0.9269 H   0  0
    2.1000    1.0709    0.0112 H   0  0
   -0.8342    1.8450    0.1019 H   0  0
   -1.4584   -1.3967    0.8352 H   0  0
   -1.7341   -1.1867   -0.9274 H   0  0
    1.9063   -0.3591   -0.4845 H   0  0
    0.8803   -1.8184   -0.4971 H   0  0
    2.0899    6.4500   -3.1055 H   0  0
    2.9869    7.9303   -3.5076 H   0  0
    2.9467    7.3571   -1.7808 H   0  0
    3.5082    7.4853   -5.6488 H   0  0
    4.6303    6.5225   -6.6580 H   0  0
    5.2841    7.5712   -5.3440 H   0  0
  1  2  1  0
  2  6  1  0
  2  3  1  0
  2 23  1  0
  3  8  1  0
  3  4  1  0
  4  5  1  0
  5  6  1  0
  6  7  1  0
  6 22  1  0
  7  8  1  0
  7  9  1  0
  9 10  1  0
 10 11  1  0
 11 12  1  0
 12 13  1  0
 13 14  2  0
 14 15  1  0
 14 21  1  0
 15 16  1  0
 16 17  1  0
 17 18  2  0
 17 19  2  0
 17 20  1  0
  1 24  1  0
  1 25  1  0
  1 26  1  0
  3 27  1  0
  4 28  1  0
  4 29  1  0
  5 30  1  0
  5 31  1  0
  7 32  1  0
  8 33  1  0
  8 34  1  0
 10 35  1  0
 10 36  1  0
 11 37  1  0
 11 38  1  0
 12 39  1  0
 12 40  1  0
 13 41  1  0
 15 42  1  0
 15 43  1  0
 21 44  1  0
 21 45  1  0
 22 46  1  0
 22 47  1  0
 22 48  1  0
 23 49  1  0
 23 50  1  0
 23 51  1  0
M  CHG  2  13   1  20  -1
M  END
> <Name>
ZINC31723398

> <reference>
BDB50020397

> <quality>
0.703

> <status>
decoy

$$$$
ZINC31633986
  SciTegic06061311253D

 51 52  0  0  1  0            999 V2000
    1.3717    7.1854    8.2757 C   0  0
    1.3763    6.0166    7.2884 C   0  0
    0.6946    6.4005    6.0926 O   0  0
    0.6090    5.4766    5.1127 C   0  0
    1.1005    4.3748    5.2707 O   0  0
   -0.0522    5.7891    3.9018 C   0  0
   -0.0427    4.9305    2.8595 C   0  0
   -0.6766    5.2359    1.6891 N   0  0
   -1.3511    6.3744    1.4851 C   0  0
   -1.8882    6.5550    0.4096 O   0  0
   -1.4497    7.3290    2.4313 N   0  0
   -0.7948    7.0987    3.7301 C   0  0
    0.6846    3.6169    2.9877 C   0  0
    1.0434    3.1252    1.6551 N   0  0
    0.2572    2.3276    0.9055 C   0  0
   -0.8387    1.8980    1.1955 O   0  0
    1.0278    2.0802   -0.3762 C   0  0  2  0  0  0
    2.2758    2.8384   -0.1816 N   0  5
    2.1916    3.4132    1.0317 C   0  0
    3.0614    4.1157    1.5083 O   0  0
    0.2559    2.6150   -1.5841 C   0  0
    1.3249    0.5890   -0.5465 C   0  0
    2.2953    0.3922   -1.7129 C   0  0
    2.5923   -1.0990   -1.8831 C   0  0  1  0  0  0
    1.3126   -1.8303   -2.2935 C   0  0
    3.6565   -1.2866   -2.9662 C   0  0
    0.3339    7.4583    8.5176 H   0  0
    1.8818    8.0495    7.8250 H   0  0
    1.8963    6.8905    9.1965 H   0  0
    2.4144    5.7446    7.0468 H   0  0
    0.8662    5.1525    7.7391 H   0  0
   -0.6334    4.5520    0.9201 H   0  0
   -1.9707    8.1989    2.2504 H   0  0
   -0.0905    7.9241    3.9111 H   0  0
   -1.5590    7.1698    4.5181 H   0  0
    0.0336    2.8831    3.4854 H   0  0
    1.5982    3.7601    3.5834 H   0  0
    0.0945    3.6955   -1.4554 H   0  0
   -0.7190    2.1084   -1.6382 H   0  0
    0.8244    2.4299   -2.5074 H   0  0
    1.7776    0.1974    0.3764 H   0  0
    0.3893    0.0489   -0.7538 H   0  0
    3.2321    0.9307   -1.5068 H   0  0
    1.8431    0.7832   -2.6363 H   0  0
    2.9607   -1.5104   -0.9318 H   0  0
    0.9435   -1.4198   -3.2449 H   0  0
    0.5468   -1.6962   -1.5153 H   0  0
    1.5254   -2.9025   -2.4160 H   0  0
    4.5772   -0.7614   -2.6720 H   0  0
    3.2889   -0.8757   -3.9181 H   0  0
    3.8705   -2.3586   -3.0891 H   0  0
  1  2  1  0
  2  3  1  0
  3  4  1  0
  4  5  2  0
  4  6  1  0
  6 12  1  0
  6  7  2  0
  7  8  1  0
  7 13  1  0
  8  9  1  0
  9 10  2  0
  9 11  1  0
 11 12  1  0
 13 14  1  0
 14 19  1  0
 14 15  1  0
 15 16  2  0
 15 17  1  0
 17 18  1  0
 17 21  1  0
 17 22  1  0
 18 19  1  0
 19 20  2  0
 22 23  1  0
 23 24  1  0
 24 25  1  0
 24 26  1  0
  1 27  1  0
  1 28  1  0
  1 29  1  0
  2 30  1  0
  2 31  1  0
  8 32  1  0
 11 33  1  0
 12 34  1  0
 12 35  1  0
 13 36  1  0
 13 37  1  0
 21 38  1  0
 21 39  1  0
 21 40  1  0
 22 41  1  0
 22 42  1  0
 23 43  1  0
 23 44  1  0
 24 45  1  0
 25 46  1  0
 25 47  1  0
 25 48  1  0
 26 49  1  0
 26 50  1  0
 26 51  1  0
M  CHG  1  18  -1
M  END
> <Name>
ZINC31633986

> <reference>
BDB50020397

> <quality>
0.701

> <status>
decoy

$$$$
ZINC25788228
  SciTegic06061311253D

 47 48  0  0  1  0            999 V2000
   -5.7118   -7.7928   -4.6315 C   0  0
   -4.9302   -8.4852   -3.6226 O   0  0
   -5.1798   -8.1765   -2.3404 C   0  0
   -6.0234   -7.3549   -2.0700 O   0  0
   -4.4077   -8.8546   -1.2381 C   0  0
   -4.9682   -8.4216    0.1181 C   0  0  2  0  0  0
   -6.4044   -8.8503    0.2242 C   0  0
   -6.7104   -9.9576   -0.1645 O   0  0
   -7.3592   -8.0620    0.7291 N   0  0
   -7.1028   -6.7007    1.1906 C   0  0
   -5.6052   -6.5024    1.4321 C   0  0
   -4.8698   -6.9612    0.2426 N   0  0
   -3.4663   -6.5304    0.2928 C   0  0
   -3.3976   -5.0287    0.1869 C   0  0
   -4.4187   -4.3789    0.1094 O   0  0
   -2.2014   -4.4078    0.1784 N   0  0
   -2.1386   -3.0097    0.1914 C   0  0
   -1.1204   -2.3662    0.8852 C   0  0
   -1.0536   -0.9858    0.9013 C   0  0
   -1.9945   -0.2367    0.2242 C   0  0
   -3.0242   -0.8732   -0.4717 C   0  0
   -3.0913   -2.2670   -0.4877 C   0  0
   -4.0356   -0.0740   -1.1935 C   0  0
   -4.9275   -0.6300   -1.8024 O   0  0
   -3.9686    1.2713   -1.1765 O   0  0
   -4.9956    1.9918   -1.9075 C   0  0
   -5.5389   -6.7180   -4.4740 H   0  0
   -6.7674   -8.0025   -4.4038 H   0  0
   -5.4494   -8.0996   -5.6548 H   0  0
   -4.5020   -9.9456   -1.3418 H   0  0
   -3.3471   -8.5703   -1.3033 H   0  0
   -4.3902   -8.8927    0.9268 H   0  0
   -8.3183   -8.4316    0.7954 H   0  0
   -7.6500   -6.5227    2.1281 H   0  0
   -7.4473   -5.9858    0.4288 H   0  0
   -5.3978   -5.4360    1.6045 H   0  0
   -5.2913   -7.0894    2.3078 H   0  0
   -2.9128   -6.9819   -0.5438 H   0  0
   -3.0180   -6.8512    1.2447 H   0  0
   -1.3335   -4.9622    0.1623 H   0  0
   -0.3651   -2.9577    1.4234 H   0  0
   -0.2478   -0.4825    1.4557 H   0  0
   -1.9332    0.8616    0.2328 H   0  0
   -3.8977   -2.7744   -1.0375 H   0  0
   -5.9595    1.6683   -1.4877 H   0  0
   -4.9432    1.6361   -2.9471 H   0  0
   -4.8728    3.0832   -1.8460 H   0  0
  1  2  1  0
  2  3  1  0
  3  4  2  0
  3  5  1  0
  5  6  1  0
  6 12  1  0
  6  7  1  0
  7  8  2  0
  7  9  1  0
  9 10  1  0
 10 11  1  0
 11 12  1  0
 12 13  1  0
 13 14  1  0
 14 15  2  0
 14 16  1  0
 16 17  1  0
 17 22  2  0
 17 18  1  0
 18 19  2  0
 19 20  1  0
 20 21  2  0
 21 22  1  0
 21 23  1  0
 23 24  2  0
 23 25  1  0
 25 26  1  0
  1 27  1  0
  1 28  1  0
  1 29  1  0
  5 30  1  0
  5 31  1  0
  6 32  1  0
  9 33  1  0
 10 34  1  0
 10 35  1  0
 11 36  1  0
 11 37  1  0
 13 38  1  0
 13 39  1  0
 16 40  1  0
 18 41  1  0
 19 42  1  0
 20 43  1  0
 22 44  1  0
 26 45  1  0
 26 46  1  0
 26 47  1  0
M  END
> <Name>
ZINC25788228

> <reference>
BDB50020397

> <quality>
0.698

> <status>
decoy

$$$$
ZINC22969467
  SciTegic06061311253D

 47 48  0  0  0  0            999 V2000
   -5.1323   -0.5521   -6.2207 C   0  0
   -3.9411    0.3991   -6.0896 C   0  0
   -3.4515    0.3672   -4.7474 O   0  0
   -2.3427    1.2175   -4.5184 N   0  5
   -1.7843    1.2815   -3.2934 C   0  0
   -2.2315    0.6109   -2.3873 O   0  0
   -0.6042    2.1865   -3.0497 C   0  0
   -0.2741    2.1859   -1.6183 N   0  0
    0.1762    0.8573   -1.1824 C   0  0
    0.6806    0.9410    0.2622 C   0  0
   -0.3712    1.5449    1.0942 N   0  0
   -0.9729    2.8101    0.6443 C   0  0
   -1.4121    2.6528   -0.8153 C   0  0
   -0.8687    0.8170    2.4960 S   0  0
   -2.1873    1.2821    2.7493 O   0  0
   -0.5594   -0.5640    2.3685 O   0  0
    0.1440    1.4420    3.7954 C   0  0
    1.3530    0.8927    4.2337 C   0  0
    1.8122    1.6911    5.2596 C   0  0
    0.8928    2.6987    5.4444 N   0  0
   -0.1133    2.5364    4.5509 C   0  0
    0.9865    3.7687    6.4407 C   0  0
    3.0513    1.4978    6.0205 C   0  0
    3.2990    2.2146    6.9722 O   0  0
    3.9154    0.5262    5.6656 N   0  0
   -5.9308   -0.2384   -5.5323 H   0  0
   -4.8150   -1.5753   -5.9711 H   0  0
   -5.5097   -0.5280   -7.2537 H   0  0
   -3.1430    0.0845   -6.7781 H   0  0
   -4.2584    1.4224   -6.3392 H   0  0
    0.2606    1.8245   -3.6250 H   0  0
   -0.8536    3.2097   -3.3673 H   0  0
    0.9913    0.5123   -1.8355 H   0  0
   -0.6635    0.1489   -1.2368 H   0  0
    0.9081   -0.0696    0.6323 H   0  0
    1.5854    1.5654    0.3022 H   0  0
   -1.8476    3.0451    1.2685 H   0  0
   -0.2320    3.6197    0.7202 H   0  0
   -1.7594    3.6230   -1.2000 H   0  0
   -2.2300    1.9196   -0.8746 H   0  0
    1.8449   -0.0068    3.8351 H   0  0
   -0.9949    3.1872    4.4549 H   0  0
    1.9705    4.2112    6.2262 H   0  0
    1.1068    3.2113    7.3814 H   0  0
    0.1636    4.4985    6.4572 H   0  0
    3.7057   -0.0806    4.8601 H   0  0
    4.7855    0.3905    6.1999 H   0  0
  1  2  1  0
  2  3  1  0
  3  4  1  0
  4  5  1  0
  5  6  2  0
  5  7  1  0
  7  8  1  0
  8 13  1  0
  8  9  1  0
  9 10  1  0
 10 11  1  0
 11 12  1  0
 11 14  1  0
 12 13  1  0
 14 15  2  0
 14 16  2  0
 14 17  1  0
 17 21  2  0
 17 18  1  0
 18 19  2  0
 19 20  1  0
 19 23  1  0
 20 21  1  0
 20 22  1  0
 23 24  2  0
 23 25  1  0
  1 26  1  0
  1 27  1  0
  1 28  1  0
  2 29  1  0
  2 30  1  0
  7 31  1  0
  7 32  1  0
  9 33  1  0
  9 34  1  0
 10 35  1  0
 10 36  1  0
 12 37  1  0
 12 38  1  0
 13 39  1  0
 13 40  1  0
 18 41  1  0
 21 42  1  0
 22 43  1  0
 22 44  1  0
 22 45  1  0
 25 46  1  0
 25 47  1  0
M  CHG  1   4  -1
M  END
> <Name>
ZINC22969467

> <reference>
BDB50020397

> <quality>
0.693

> <status>
decoy

$$$$
ZINC02567072
  SciTegic06061311253D

 31 32  0  0  0  0            999 V2000
    6.7625   -1.7639    2.0704 C   0  0
    6.9012   -2.7603    3.0172 C   0  0
    6.2455   -3.9687    2.8526 C   0  0
    5.4448   -4.1779    1.7425 C   0  0
    5.2993   -3.1812    0.7972 C   0  0
    5.9560   -1.9700    0.9606 C   0  0
    5.8137   -0.9883    0.0313 O   0  0
    4.6643   -0.2695    0.0356 C   0  0
    4.5268    0.8079   -0.8345 C   0  0
    3.3652    1.5332   -0.8291 C   0  0
    2.3465    1.1587    0.0629 C   0  0
    2.5575    0.0677    0.9122 C   0  0
    3.6900   -0.6033    0.8681 N   0  0
    1.1736    1.8511    0.1041 N   0  0
    0.0374    1.2089    0.1441 C   0  0
   -1.2205    1.9513    0.1822 C   0  0
   -2.4008    1.2843    0.2181 C   0  0
   -3.6612    2.0282    0.2562 C   0  0
   -3.6498    3.2443    0.2558 O   0  0
   -2.4171   -0.4516    0.2187 Cl  0  0
   -1.2042    3.6873    0.1815 Cl  0  0
    6.3869   -4.9444    3.7763 F   0  0
   -4.8354    1.3647    0.2919 O   0  5
    7.2913   -0.8076    2.1964 H   0  0
    7.5328   -2.5936    3.9022 H   0  0
    4.9243   -5.1383    1.6133 H   0  0
    4.6631   -3.3477   -0.0846 H   0  0
    5.3441    1.0746   -1.5207 H   0  0
    3.2329    2.3890   -1.5074 H   0  0
    1.7723   -0.2320    1.6218 H   0  0
    0.0272    0.1090    0.1491 H   0  0
  1  6  2  0
  1  2  1  0
  2  3  2  0
  3  4  1  0
  3 22  1  0
  4  5  2  0
  5  6  1  0
  6  7  1  0
  7  8  1  0
  8 13  2  0
  8  9  1  0
  9 10  2  0
 10 11  1  0
 11 12  2  0
 11 14  1  0
 12 13  1  0
 14 15  2  0
 15 16  1  0
 16 17  2  0
 16 21  1  0
 17 18  1  0
 17 20  1  0
 18 19  2  0
 18 23  1  0
  1 24  1  0
  2 25  1  0
  4 26  1  0
  5 27  1  0
  9 28  1  0
 10 29  1  0
 12 30  1  0
 15 31  1  0
M  CHG  1  23  -1
M  END
> <Name>
ZINC02567072

> <reference>
BDB50272145

> <quality>
0.819

> <status>
decoy

$$$$
ZINC28460321
  SciTegic06061311253D

 48 50  0  0  1  0            999 V2000
    0.3393   -1.5932  -11.2670 C   0  0
   -0.4705   -0.5996  -10.4316 C   0  0
   -0.1837   -0.8222   -8.9690 C   0  0
    0.6064   -1.6909   -8.4150 N   0  0
    0.7583   -1.7634   -7.0337 N   0  0
    1.5524   -2.6266   -6.3344 C   0  0
    2.2301   -3.4513   -6.9275 O   0  0
    1.5879   -2.5649   -4.9411 C   0  0
    0.8198   -1.6315   -4.2779 C   0  0
    0.0530   -0.8092   -4.9897 N   0  0
    0.0298   -0.8702   -6.2970 C   0  0
   -0.8427    0.0414   -7.5517 S   0  0
    0.8435   -1.5480   -2.7734 C   0  0
    1.4070   -0.2726   -2.3682 O   0  0
    1.4994   -0.0386   -1.0497 C   0  0
    1.1218   -0.8717   -0.2603 O   0  0
    2.0740    1.2634   -0.5541 C   0  0  1  0  0  0
    1.3366    2.5500   -0.9308 C   0  0  2  0  0  0
    1.2792    2.0282    0.5063 C   0  0  2  0  0  0
    2.0719    2.7934    1.5679 C   0  0
   -0.0383    1.4130    0.9824 C   0  0
    0.0913    2.4182   -1.7692 C   0  0
   -0.4800    3.4873   -2.2660 C   0  0
   -1.7218    3.3550   -3.1095 C   0  0
    0.1045    4.8494   -1.9939 C   0  0
    0.0583   -2.6203  -10.9912 H   0  0
    1.4126   -1.4439  -11.0777 H   0  0
    0.1304   -1.4313  -12.3348 H   0  0
   -0.1887    0.4272  -10.7078 H   0  0
   -1.5438   -0.7488  -10.6209 H   0  0
    2.2262   -3.2583   -4.3738 H   0  0
   -0.1820   -1.6352   -2.3850 H   0  0
    1.4593   -2.3650   -2.3694 H   0  0
    3.1105    0.9060   -0.6425 H   0  0
    1.6229    3.5016   -1.4025 H   0  0
    2.7214    3.4887    1.0160 H   0  0
    2.7210    2.0498    2.0535 H   0  0
    1.4309    3.3163    2.2929 H   0  0
    0.2157    0.4109    1.3583 H   0  0
   -0.6528    1.2812    0.0796 H   0  0
   -0.5495    2.0209    1.7434 H   0  0
   -0.3380    1.4243   -1.9640 H   0  0
   -2.4453    2.8200   -2.4767 H   0  0
   -1.4420    2.6800   -3.9317 H   0  0
   -2.1127    4.3173   -3.4716 H   0  0
    1.1429    4.7951   -2.3527 H   0  0
    0.1396    4.9351   -0.8978 H   0  0
   -0.4581    5.6712   -2.4609 H   0  0
  1  2  1  0
  2  3  1  0
  3 12  1  0
  3  4  2  0
  4  5  1  0
  5 11  1  0
  5  6  1  0
  6  7  2  0
  6  8  1  0
  8  9  2  0
  9 10  1  0
  9 13  1  0
 10 11  2  0
 11 12  1  0
 13 14  1  0
 14 15  1  0
 15 16  2  0
 15 17  1  0
 17 19  1  0
 17 18  1  0
 18 19  1  0
 18 22  1  0
 19 20  1  0
 19 21  1  0
 22 23  2  0
 23 24  1  0
 23 25  1  0
  1 26  1  0
  1 27  1  0
  1 28  1  0
  2 29  1  0
  2 30  1  0
  8 31  1  0
 13 32  1  0
 13 33  1  0
 17 34  1  0
 18 35  1  0
 20 36  1  0
 20 37  1  0
 20 38  1  0
 21 39  1  0
 21 40  1  0
 21 41  1  0
 22 42  1  0
 24 43  1  0
 24 44  1  0
 24 45  1  0
 25 46  1  0
 25 47  1  0
 25 48  1  0
M  END
> <Name>
ZINC28460321

> <reference>
BDB50272145

> <quality>
0.778

> <status>
decoy

$$$$
ZINC16250657
  SciTegic06061311253D

 40 42  0  0  0  0            999 V2000
   -2.0559   13.7449   -6.3427 C   0  0
   -2.9328   12.8446   -5.9676 C   0  0
   -2.8442   11.4381   -6.5014 C   0  0
   -2.5512   10.5244   -5.4117 O   0  0
   -2.4389    9.2231   -5.7210 C   0  0
   -2.5808    8.8595   -6.8645 O   0  0
   -2.1360    8.2155   -4.6421 C   0  0
   -2.0616    6.8165   -5.2571 C   0  0
   -1.7586    5.8089   -4.1782 C   0  0
   -1.6514    4.5036   -4.5244 N   0  0
   -1.3817    3.5217   -3.6316 C   0  0
   -1.2880    2.3523   -3.9622 O   0  0
   -1.2131    3.9467   -2.2707 C   0  0
   -0.9206    3.1036   -1.1256 C   0  0
   -0.8035    3.7251    0.0715 C   0  0
   -1.0738    5.4460   -0.2701 S   0  0
   -1.3434    5.3288   -2.0101 C   0  0
   -1.6099    6.2370   -2.9438 N   0  0
   -0.5097    3.0932    1.3970 C   0  0
   -0.7263    1.5781    1.2705 C   0  0
   -0.0127    1.0858    0.0080 C   0  0
   -0.7489    1.5906   -1.2331 C   0  0
   -4.1956   13.2732   -4.8560 Cl  0  0
   -1.2557   13.4733   -7.0470 H   0  0
   -2.1206   14.7715   -5.9530 H   0  0
   -3.8026   11.1604   -6.9644 H   0  0
   -2.0433   11.3798   -7.2532 H   0  0
   -1.1723    8.4603   -4.1716 H   0  0
   -2.9314    8.2395   -3.8826 H   0  0
   -1.2659    6.7903   -6.0162 H   0  0
   -3.0252    6.5708   -5.7273 H   0  0
   -1.7811    4.2458   -5.5132 H   0  0
   -1.1894    3.5000    2.1602 H   0  0
    0.5345    3.2940    1.6788 H   0  0
   -0.3072    1.0707    2.1519 H   0  0
   -1.8023    1.3636    1.1923 H   0  0
    0.0034   -0.0141    0.0008 H   0  0
    1.0198    1.4650   -0.0002 H   0  0
   -0.1625    1.3486   -2.1318 H   0  0
   -1.7371    1.1114   -1.2945 H   0  0
  1  2  2  0
  2  3  1  0
  2 23  1  0
  3  4  1  0
  4  5  1  0
  5  6  2  0
  5  7  1  0
  7  8  1  0
  8  9  1  0
  9 18  2  0
  9 10  1  0
 10 11  1  0
 11 12  2  0
 11 13  1  0
 13 17  2  0
 13 14  1  0
 14 22  1  0
 14 15  2  0
 15 16  1  0
 15 19  1  0
 16 17  1  0
 17 18  1  0
 19 20  1  0
 20 21  1  0
 21 22  1  0
  1 24  1  0
  1 25  1  0
  3 26  1  0
  3 27  1  0
  7 28  1  0
  7 29  1  0
  8 30  1  0
  8 31  1  0
 10 32  1  0
 19 33  1  0
 19 34  1  0
 20 35  1  0
 20 36  1  0
 21 37  1  0
 21 38  1  0
 22 39  1  0
 22 40  1  0
M  END
> <Name>
ZINC16250657

> <reference>
BDB50272145

> <quality>
0.772

> <status>
decoy

$$$$
ZINC04223435
  SciTegic06061311253D

 40 42  0  0  1  0            999 V2000
    4.2621    5.8921   -2.5126 C   0  0
    4.1843    5.3067   -1.1012 C   0  0
    3.9585    3.8747   -1.1829 O   0  0
    3.8646    3.2021   -0.0175 C   0  0
    3.9687    3.7972    1.0383 O   0  0
    3.6373    1.7559   -0.0232 C   0  0
    4.7452    0.8186   -0.0385 C   0  0
    4.3969   -0.4878   -0.0433 C   0  0
    2.6284   -0.4842   -0.0180 S   0  0
    2.3518    1.2267   -0.0138 C   0  0
    1.1435    1.9026    0.0014 N   0  5
   -0.0144    1.2129    0.0087 C   0  0
    0.0021   -0.0041    0.0020 O   0  0
   -1.2931    1.9282    0.0187 C   0  0
   -2.5813    1.4154    0.0220 C   0  0
   -3.6138    2.3197    0.0318 C   0  0
   -3.3316    3.6490    0.0377 C   0  0
   -1.5983    3.6858    0.0375 S   0  0
    5.3319   -1.6566   -0.0599 C   0  0
    7.0433    0.0014    0.3790 C   0  0
    6.2161    1.2181   -0.0467 C   0  0
    7.6758   -2.2347   -0.3027 C   0  0
    6.6720   -1.1596   -0.4559 N   0  0
    3.3176    5.7002   -3.0428 H   0  0
    5.0917    5.4215   -3.0606 H   0  0
    4.4332    6.9770   -2.4514 H   0  0
    5.1292    5.4988   -0.5719 H   0  0
    3.3548    5.7773   -0.5531 H   0  0
   -2.7677    0.3313    0.0170 H   0  0
   -4.6576    1.9725    0.0348 H   0  0
   -4.0330    4.4964    0.0416 H   0  0
    4.9828   -2.4016   -0.7900 H   0  0
    5.3845   -2.1037    0.9437 H   0  0
    8.1131    0.2205    0.2470 H   0  0
    6.8428   -0.2284    1.4359 H   0  0
    6.3806    2.0427    0.6625 H   0  0
    6.5098    1.5279   -1.0605 H   0  0
    7.3972   -3.0858   -0.9414 H   0  0
    7.7016   -2.5609    0.7475 H   0  0
    8.6678   -1.8617   -0.5974 H   0  0
  1  2  1  0
  2  3  1  0
  3  4  1  0
  4  5  2  0
  4  6  1  0
  6 10  2  0
  6  7  1  0
  7 21  1  0
  7  8  2  0
  8  9  1  0
  8 19  1  0
  9 10  1  0
 10 11  1  0
 11 12  1  0
 12 13  2  0
 12 14  1  0
 14 18  1  0
 14 15  2  0
 15 16  1  0
 16 17  2  0
 17 18  1  0
 19 23  1  0
 20 21  1  0
 20 23  1  0
 22 23  1  0
  1 24  1  0
  1 25  1  0
  1 26  1  0
  2 27  1  0
  2 28  1  0
 15 29  1  0
 16 30  1  0
 17 31  1  0
 19 32  1  0
 19 33  1  0
 20 34  1  0
 20 35  1  0
 21 36  1  0
 21 37  1  0
 22 38  1  0
 22 39  1  0
 22 40  1  0
M  CHG  1  11  -1
M  END
> <Name>
ZINC04223435

> <reference>
BDB50272145

> <quality>
0.763

> <status>
decoy

$$$$
ZINC08738244
  SciTegic06061311253D

 41 43  0  0  0  0            999 V2000
   -1.1897   -0.9264    0.0080 C   0  0
    0.0021   -0.0041    0.0020 C   0  0
    1.4132   -0.3903   -0.0135 C   0  0
    2.0881   -1.6130   -0.0259 C   0  0
    3.4543   -1.6324   -0.0394 C   0  0
    4.1745   -0.4456   -0.0394 C   0  0
    3.5273    0.7710   -0.0271 C   0  0
    2.1380    0.8156   -0.0140 C   0  0
    1.2467    1.8260    0.0000 O   0  0
   -0.0163    1.3525    0.0095 C   0  0
   -1.2332    2.1836    0.0200 C   0  0
   -2.3327    1.6553    0.0226 O   0  0
   -1.1320    3.5179    0.0268 N   0  0
   -2.2295    4.2676    0.0362 C   0  0
   -2.3360    5.6318    0.0498 N   0  0
   -3.5549    6.1959    0.0537 C   0  0
   -4.6445    5.3819    0.0551 C   0  0
   -3.8901    3.7642    0.0423 S   0  0
   -6.0655    5.7394    0.0645 C   0  0
   -6.3983    6.9091    0.0722 O   0  0
   -7.0045    4.7711    0.0647 O   0  0
   -8.3921    5.1985    0.0744 C   0  0
   -9.2904    3.9885    0.0732 C   0  0
  -10.3207    3.9367    0.8807 C   0  0
   -3.7115    7.6947    0.0628 C   0  0
   -1.7627   -0.5718   -0.8614 H   0  0
   -1.7466   -0.5812    0.8916 H   0  0
   -0.9800   -2.0062    0.0002 H   0  0
    1.5223   -2.5563   -0.0248 H   0  0
    3.9870   -2.5948   -0.0503 H   0  0
    5.2740   -0.4767   -0.0493 H   0  0
    4.1088    1.7047   -0.0276 H   0  0
   -1.4904    6.2198    0.0570 H   0  0
   -8.5960    5.8064   -0.8194 H   0  0
   -8.5853    5.7970    0.9769 H   0  0
   -9.0810    3.1487   -0.6057 H   0  0
  -10.5301    4.7765    1.5596 H   0  0
  -10.9764    3.0535    0.8798 H   0  0
   -3.1546    8.0411   -0.8203 H   0  0
   -3.1538    8.0304    0.9495 H   0  0
   -4.7571    8.0362    0.0653 H   0  0
  1  2  1  0
  2 10  2  0
  2  3  1  0
  3  8  1  0
  3  4  2  0
  4  5  1  0
  5  6  2  0
  6  7  1  0
  7  8  2  0
  8  9  1  0
  9 10  1  0
 10 11  1  0
 11 12  2  0
 11 13  1  0
 13 14  2  0
 14 18  1  0
 14 15  1  0
 15 16  1  0
 16 17  2  0
 16 25  1  0
 17 18  1  0
 17 19  1  0
 19 20  2  0
 19 21  1  0
 21 22  1  0
 22 23  1  0
 23 24  2  0
  1 26  1  0
  1 27  1  0
  1 28  1  0
  4 29  1  0
  5 30  1  0
  6 31  1  0
  7 32  1  0
 15 33  1  0
 22 34  1  0
 22 35  1  0
 23 36  1  0
 24 37  1  0
 24 38  1  0
 25 39  1  0
 25 40  1  0
 25 41  1  0
M  END
> <Name>
ZINC08738244

> <reference>
BDB50272145

> <quality>
0.759

> <status>
decoy

$$$$
ZINC03375632
  SciTegic06061311253D

 47 49  0  0  0  0            999 V2000
   -0.3226   -4.4558   -1.4600 C   0  0
    0.6007   -3.2358   -1.4629 C   0  0
    0.9229   -2.8367   -0.0214 C   0  0
    1.8070   -1.6686   -0.0241 N   0  0
    3.1436   -1.8479   -0.0370 C   0  0
    3.6176   -2.9681   -0.0468 O   0  0
    4.0202   -0.6625   -0.0391 C   0  0
    5.4082   -0.7890   -0.0531 C   0  0
    6.1953    0.3434   -0.0551 C   0  0
    5.6133    1.6012   -0.0432 C   0  0
    4.2394    1.7393   -0.0292 C   0  0
    3.4327    0.6116   -0.0271 C   0  0
    2.0438    0.7229   -0.0136 N   0  0
    1.2564   -0.3960   -0.0121 C   0  0
    0.0021   -0.0041    0.0020 N   0  0
   -0.0169    1.3957    0.0097 N   0  0
    1.2236    1.8187    0.0001 C   0  0
    1.7440    3.5021    0.0034 S   0  0
    0.1921    4.4412    0.0231 C   0  0
    0.4979    5.9168    0.0274 C   0  0
    1.6444    6.2959    0.0181 O   0  0
   -0.6271    6.9194    0.0433 C   0  0  1  0  0  0
   -0.0481    8.3356    0.0447 C   0  0
   -1.4998    6.7264   -1.1984 C   0  0
   -1.4755    6.7141    1.2999 C   0  0
   -1.2553   -4.2099   -0.9312 H   0  0
    0.1767   -5.2936   -0.9512 H   0  0
   -0.5547   -4.7433   -2.4961 H   0  0
    1.5332   -3.4827   -1.9916 H   0  0
    0.1015   -2.3980   -1.9717 H   0  0
    1.4232   -3.6731    0.4887 H   0  0
   -0.0092   -2.5892    0.5077 H   0  0
    5.8729   -1.7860   -0.0625 H   0  0
    7.2911    0.2478   -0.0662 H   0  0
    6.2514    2.4972   -0.0449 H   0  0
    3.7861    2.7415   -0.0197 H   0  0
   -0.3820    4.1838    0.9254 H   0  0
   -0.3986    4.1923   -0.8708 H   0  0
    0.5619    8.4844   -0.8585 H   0  0
    0.5793    8.4755    0.9373 H   0  0
   -0.8688    9.0680    0.0563 H   0  0
   -1.9168    5.7085   -1.2002 H   0  0
   -0.8908    6.8741   -2.1024 H   0  0
   -2.3212    7.4580   -1.1874 H   0  0
   -0.8490    6.8529    2.1933 H   0  0
   -1.8925    5.6962    1.2998 H   0  0
   -2.2969    7.4456    1.3121 H   0  0
  1  2  1  0
  2  3  1  0
  3  4  1  0
  4 14  1  0
  4  5  1  0
  5  6  2  0
  5  7  1  0
  7 12  2  0
  7  8  1  0
  8  9  2  0
  9 10  1  0
 10 11  2  0
 11 12  1  0
 12 13  1  0
 13 17  1  0
 13 14  1  0
 14 15  2  0
 15 16  1  0
 16 17  2  0
 17 18  1  0
 18 19  1  0
 19 20  1  0
 20 21  2  0
 20 22  1  0
 22 23  1  0
 22 24  1  0
 22 25  1  0
  1 26  1  0
  1 27  1  0
  1 28  1  0
  2 29  1  0
  2 30  1  0
  3 31  1  0
  3 32  1  0
  8 33  1  0
  9 34  1  0
 10 35  1  0
 11 36  1  0
 19 37  1  0
 19 38  1  0
 23 39  1  0
 23 40  1  0
 23 41  1  0
 24 42  1  0
 24 43  1  0
 24 44  1  0
 25 45  1  0
 25 46  1  0
 25 47  1  0
M  END
> <Name>
ZINC03375632

> <reference>
BDB50272145

> <quality>
0.744

> <status>
decoy

$$$$
ZINC26654445
  SciTegic06061311253D

 54 57  0  0  1  0            999 V2000
    6.0016    6.0554   -0.7074 C   0  0
    4.7592    5.2760   -0.3607 C   0  0
    3.6138    5.4278   -1.1197 C   0  0
    2.4742    4.7130   -0.8016 C   0  0
    2.4802    3.8457    0.2748 C   0  0
    3.6242    3.6975    1.0366 C   0  0
    4.7651    4.4091    0.7159 C   0  0
    1.2379    3.0663    0.6214 C   0  0
    1.1786    1.8491   -0.1988 N   0  0
    2.1998    0.8805    0.2218 C   0  0
    2.5297   -0.0002   -0.9014 N   0  0
    1.9018   -1.1659   -1.1608 C   0  0
    0.9920   -1.6648   -0.5338 O   0  0
    2.5696   -1.7173   -2.3994 C   0  0  2  0  0  0
    1.5652   -1.8439   -3.5395 C   0  0
    0.4885   -2.8650   -3.1636 C   0  0
    1.1456   -4.2190   -2.8877 C   0  0
    2.1318   -4.0811   -1.7261 C   0  0
    3.2152   -3.0648   -2.0961 C   0  0  2  0  0  0
    4.1902   -2.9111   -0.9270 C   0  0
    3.5950   -0.7181   -2.7264 N   0  5
    3.4953    0.2490   -1.7944 C   0  0
    4.2023    1.2372   -1.7674 O   0  0
   -0.1627    1.2513   -0.1576 C   0  0  1  0  0  0
   -1.1784    1.8611    0.8105 C   0  0
   -1.3255    2.0872   -0.6964 C   0  0
    6.7838    5.2960   -0.8540 H   0  0
    6.2552    6.6108    0.2076 H   0  0
    5.8848    6.7137   -1.5809 H   0  0
    3.6092    6.1174   -1.9767 H   0  0
    1.5625    4.8343   -1.4050 H   0  0
    3.6266    3.0133    1.8979 H   0  0
    5.6777    4.2855    1.3175 H   0  0
    0.3493    3.6840    0.4243 H   0  0
    1.2635    2.7897    1.6857 H   0  0
    1.8137    0.2786    1.0576 H   0  0
    3.1042    1.4175    0.5438 H   0  0
    1.0945   -0.8669   -3.7235 H   0  0
    2.0835   -2.1777   -4.4505 H   0  0
   -0.2269   -2.9675   -3.9929 H   0  0
   -0.0413   -2.5244   -2.2617 H   0  0
    0.3718   -4.9555   -2.6254 H   0  0
    1.6833   -4.5566   -3.7860 H   0  0
    2.5987   -5.0560   -1.5222 H   0  0
    1.5965   -3.7357   -0.8293 H   0  0
    3.7592   -3.4176   -2.9847 H   0  0
    3.6464   -2.5576   -0.0385 H   0  0
    4.9707   -2.1828   -1.1923 H   0  0
    4.6565   -3.8829   -0.7075 H   0  0
    0.2203    0.2377   -0.3470 H   0  0
   -0.7729    2.7515    1.3132 H   0  0
   -1.8906    1.1065    1.1757 H   0  0
   -2.1156    1.4520   -1.1233 H   0  0
   -0.9965    3.0961   -0.9860 H   0  0
  1  2  1  0
  2  7  2  0
  2  3  1  0
  3  4  2  0
  4  5  1  0
  5  6  2  0
  5  8  1  0
  6  7  1  0
  8  9  1  0
  9 10  1  0
  9 24  1  0
 10 11  1  0
 11 22  1  0
 11 12  1  0
 12 13  2  0
 12 14  1  0
 14 19  1  0
 14 15  1  0
 14 21  1  0
 15 16  1  0
 16 17  1  0
 17 18  1  0
 18 19  1  0
 19 20  1  0
 21 22  1  0
 22 23  2  0
 24 26  1  0
 24 25  1  0
 25 26  1  0
  1 27  1  0
  1 28  1  0
  1 29  1  0
  3 30  1  0
  4 31  1  0
  6 32  1  0
  7 33  1  0
  8 34  1  0
  8 35  1  0
 10 36  1  0
 10 37  1  0
 15 38  1  0
 15 39  1  0
 16 40  1  0
 16 41  1  0
 17 42  1  0
 17 43  1  0
 18 44  1  0
 18 45  1  0
 19 46  1  0
 20 47  1  0
 20 48  1  0
 20 49  1  0
 24 50  1  0
 25 51  1  0
 25 52  1  0
 26 53  1  0
 26 54  1  0
M  CHG  1  21  -1
M  END
> <Name>
ZINC26654445

> <reference>
BDB50272145

> <quality>
0.739

> <status>
decoy

$$$$
ZINC05982906
  SciTegic06061311253D

 50 54  0  0  0  0            999 V2000
  -12.6384    0.2195    3.8401 C   0  0
  -12.1880   -0.3970    2.5408 C   0  0
  -13.0481   -1.1500    1.8256 C   0  0
  -12.6427   -1.7321    0.6119 C   0  0
  -11.3772   -1.5333    0.1587 C   0  0
  -10.4866   -0.7426    0.9173 C   0  0
  -10.9116   -0.1878    2.0989 N   0  0
   -9.8664    0.5147    2.6168 C   0  0
   -8.8213    0.3793    1.7471 C   0  0
   -9.2287   -0.3875    0.7183 N   0  0
   -7.4817    0.9750    1.9048 C   0  0
   -7.2310    1.6573    2.8786 O   0  0
   -6.5355    0.7628    0.9691 O   0  0
   -5.2400    1.3802    1.1898 C   0  0
   -4.3180    1.0349    0.0488 C   0  0
   -4.7122    0.3402   -0.8569 O   0  0
   -2.9042    1.5565    0.0381 C   0  0  2  0  0  0
   -2.1881    1.0631   -1.2207 C   0  0
   -0.7527    1.5927   -1.2315 C   0  0  2  0  0  0
   -0.0127    1.0858    0.0080 C   0  0
   -0.7288    1.5792    1.2668 C   0  0  2  0  0  0
   -2.1642    1.0497    1.2777 C   0  0
   -0.7496    3.1091    1.2752 C   0  0
   -1.4896    3.6159    0.0357 C   0  0  1  0  0  0
   -0.7734    3.1225   -1.2231 C   0  0
   -2.9250    3.0863    0.0466 C   0  0
  -12.4656    1.2995    3.7227 H   0  0
  -11.9267   -0.1456    4.5952 H   0  0
  -13.6817   -0.0122    4.1008 H   0  0
  -14.0723   -1.3096    2.1938 H   0  0
  -13.3471   -2.3460    0.0314 H   0  0
  -11.0498   -1.9839   -0.7898 H   0  0
   -9.8639    1.0840    3.5580 H   0  0
   -4.8112    1.0085    2.1321 H   0  0
   -5.3590    2.4723    1.2467 H   0  0
   -2.1726   -0.0368   -1.2266 H   0  0
   -2.7192    1.4272   -2.1125 H   0  0
   -0.2378    1.2380   -2.1365 H   0  0
    1.0194    1.4662    0.0013 H   0  0
    0.0018   -0.0141    0.0023 H   0  0
   -0.1967    1.2148    2.1579 H   0  0
   -2.6786    1.4049    2.1828 H   0  0
   -2.1485   -0.0502    1.2726 H   0  0
   -1.2650    3.4640    2.1799 H   0  0
    0.2819    3.4910    1.2671 H   0  0
   -1.5046    4.7158    0.0417 H   0  0
   -1.3054    3.4880   -2.1138 H   0  0
    0.2585    3.5034   -1.2303 H   0  0
   -3.4565    3.4509   -0.8448 H   0  0
   -3.4394    3.4421    0.9515 H   0  0
  1  2  1  0
  2  7  1  0
  2  3  2  0
  3  4  1  0
  4  5  2  0
  5  6  1  0
  6 10  2  0
  6  7  1  0
  7  8  1  0
  8  9  2  0
  9 10  1  0
  9 11  1  0
 11 12  2  0
 11 13  1  0
 13 14  1  0
 14 15  1  0
 15 16  2  0
 15 17  1  0
 17 22  1  0
 17 26  1  0
 17 18  1  0
 18 19  1  0
 19 25  1  0
 19 20  1  0
 20 21  1  0
 21 22  1  0
 21 23  1  0
 23 24  1  0
 24 25  1  0
 24 26  1  0
  1 27  1  0
  1 28  1  0
  1 29  1  0
  3 30  1  0
  4 31  1  0
  5 32  1  0
  8 33  1  0
 14 34  1  0
 14 35  1  0
 18 36  1  0
 18 37  1  0
 19 38  1  0
 20 39  1  0
 20 40  1  0
 21 41  1  0
 22 42  1  0
 22 43  1  0
 23 44  1  0
 23 45  1  0
 24 46  1  0
 25 47  1  0
 25 48  1  0
 26 49  1  0
 26 50  1  0
M  END
> <Name>
ZINC05982906

> <reference>
BDB50272145

> <quality>
0.731

> <status>
decoy

$$$$
ZINC21193572
  SciTegic06061311253D

 37 39  0  0  0  0            999 V2000
    0.8739    2.8612    1.2005 C   0  0
    0.7519    1.4823    1.2883 C   0  0
   -0.4580    0.8679    1.0487 C   0  0
   -1.5702    1.6322    0.7100 C   0  0
   -1.4455    3.0276    0.6279 C   0  0
   -0.2178    3.6356    0.8719 C   0  0
   -2.7845    3.5318    0.2622 C   0  0
   -3.5948    2.4184    0.1435 C   0  0
   -2.8796    1.3094    0.4144 N   0  0
   -3.4178   -0.0531    0.3980 C   0  0
   -3.8354   -0.4536    1.8144 C   0  0
   -4.3762   -1.8225    1.7979 C   0  0
   -4.7935   -2.8790    1.7852 N   0  0
   -3.1577    4.8790    0.0582 C   0  0
   -4.3198    5.1784   -0.6320 C   0  0
   -5.0638    4.1335   -1.2686 C   0  0
   -5.6541    3.3046   -1.7736 N   0  0
   -4.7892    6.5667   -0.7113 C   0  0
   -4.1569    7.4547   -0.1703 O   0  5
   -5.9206    6.8582   -1.3832 N   0  0
   -6.3648    8.1719   -1.4582 C   0  0
   -5.8279    9.2593   -0.9394 N   0  0
   -6.3826   10.4434   -1.1103 C   0  0
   -7.5306   10.5217   -1.8266 C   0  0
   -7.7738    8.8036   -2.2528 S   0  0
    1.8459    3.3386    1.3939 H   0  0
    1.6293    0.8734    1.5517 H   0  0
   -0.5445   -0.2260    1.1252 H   0  0
   -0.1191    4.7290    0.8028 H   0  0
   -4.6601    2.4352   -0.1301 H   0  0
   -4.2931   -0.0938   -0.2670 H   0  0
   -2.6475   -0.7485    0.0332 H   0  0
   -4.6066    0.2401    2.1805 H   0  0
   -2.9605   -0.4136    2.4799 H   0  0
   -2.5249    5.6901    0.4478 H   0  0
   -5.9242   11.3467   -0.6814 H   0  0
   -8.1434   11.4004   -2.0765 H   0  0
  1  6  1  0
  1  2  2  0
  2  3  1  0
  3  4  2  0
  4  9  1  0
  4  5  1  0
  5  6  2  0
  5  7  1  0
  7  8  2  0
  7 14  1  0
  8  9  1  0
  9 10  1  0
 10 11  1  0
 11 12  1  0
 12 13  3  0
 14 15  2  0
 15 16  1  0
 15 18  1  0
 16 17  3  0
 18 19  1  0
 18 20  2  0
 20 21  1  0
 21 25  1  0
 21 22  2  0
 22 23  1  0
 23 24  2  0
 24 25  1  0
  1 26  1  0
  2 27  1  0
  3 28  1  0
  6 29  1  0
  8 30  1  0
 10 31  1  0
 10 32  1  0
 11 33  1  0
 11 34  1  0
 14 35  1  0
 23 36  1  0
 24 37  1  0
M  CHG  1  19  -1
M  END
> <Name>
ZINC21193572

> <reference>
BDB50272145

> <quality>
0.728

> <status>
decoy

$$$$
ZINC12343908
  SciTegic06061311253D

 39 41  0  0  0  0            999 V2000
    3.0110    5.2138   -2.9450 C   0  0
    2.1477    4.2293   -2.9058 C   0  0
    2.3557    3.0823   -1.9507 C   0  0
    1.1217    2.7756   -1.2986 O   0  0
    1.1358    1.7597   -0.4004 C   0  0
    2.3111    1.0693   -0.1479 C   0  0
    2.3249    0.0347    0.7664 C   0  0
    1.1665   -0.3239    1.4415 C   0  0
   -0.0120    0.3486    1.2065 C   0  0
   -0.0421    1.4014    0.2804 C   0  0
   -1.2907    2.1178    0.0197 C   0  0
   -2.4769    1.4215   -0.0826 C   0  0
   -3.8389    1.9795   -0.1922 C   0  0
   -4.1402    3.1579   -0.2101 O   0  0
   -4.6840    0.9340   -0.2688 N   0  5
   -3.9816   -0.2697   -0.2178 N   0  0
   -2.6586   -0.0424   -0.1126 C   0  0
   -1.7813   -0.8830   -0.0515 O   0  0
   -4.5694   -1.5374   -0.2743 C   0  0
   -3.7753   -2.6757   -0.2217 C   0  0
   -4.3594   -3.9262   -0.2729 C   0  0
   -5.7324   -4.0455   -0.3867 C   0  0
   -6.5253   -2.9141   -0.4450 C   0  0
   -5.9480   -1.6608   -0.3890 C   0  0
    1.2035   -1.6267    2.5883 Cl  0  0
    3.8878    5.2033   -2.2808 H   0  0
    2.8592    6.0510   -3.6421 H   0  0
    1.2710    4.2398   -3.5700 H   0  0
    2.7048    2.2001   -2.5074 H   0  0
    3.1076    3.3621   -1.1981 H   0  0
    3.2348    1.3463   -0.6771 H   0  0
    3.2609   -0.5093    0.9612 H   0  0
   -0.9276    0.0607    1.7439 H   0  0
   -1.2835    3.2118   -0.0947 H   0  0
   -2.6824   -2.5814   -0.1394 H   0  0
   -3.7318   -4.8282   -0.2231 H   0  0
   -6.1948   -5.0426   -0.4309 H   0  0
   -7.6171   -3.0125   -0.5361 H   0  0
   -6.5794   -0.7612   -0.4352 H   0  0
  1  2  2  0
  2  3  1  0
  3  4  1  0
  4  5  1  0
  5 10  2  0
  5  6  1  0
  6  7  2  0
  7  8  1  0
  8  9  2  0
  8 25  1  0
  9 10  1  0
 10 11  1  0
 11 12  2  0
 12 17  1  0
 12 13  1  0
 13 14  2  0
 13 15  1  0
 15 16  1  0
 16 17  1  0
 16 19  1  0
 17 18  2  0
 19 24  2  0
 19 20  1  0
 20 21  2  0
 21 22  1  0
 22 23  2  0
 23 24  1  0
  1 26  1  0
  1 27  1  0
  2 28  1  0
  3 29  1  0
  3 30  1  0
  6 31  1  0
  7 32  1  0
  9 33  1  0
 11 34  1  0
 20 35  1  0
 21 36  1  0
 22 37  1  0
 23 38  1  0
 24 39  1  0
M  CHG  1  15  -1
M  END
> <Name>
ZINC12343908

> <reference>
BDB50272145

> <quality>
0.723

> <status>
decoy

$$$$
ZINC06301102
  SciTegic06061311253D

 44 46  0  0  0  0            999 V2000
    3.1028    1.0184   -5.6872 C   0  0
    2.6646    0.8742   -4.2525 C   0  0
    1.4452    0.2922   -3.9587 C   0  0
    1.0406    0.1591   -2.6448 C   0  0
    1.8598    0.6104   -1.6186 C   0  0
    3.0811    1.1996   -1.9171 C   0  0
    3.4827    1.3247   -3.2327 C   0  0
    1.4521    0.4767   -0.2844 N   0  0
    2.2175    0.1093    0.7850 C   0  0
    1.4268    0.1144    1.8404 N   0  0
    0.2347    0.4555    1.5075 N   0  0
    0.1663    0.6911    0.2425 N   0  0
    3.6539   -0.2281    0.7640 C   0  0
    4.0929   -1.3249    0.0577 C   0  0
    5.4258   -1.5436   -0.0992 N   0  0
    6.3729   -0.4366    0.0549 C   0  0
    5.9148   -2.8863   -0.4222 C   0  0
    4.6128    0.6044    1.4948 C   0  0
    4.9554    1.6805    1.0399 O   0  0
    5.1641    0.1379    2.7843 C   0  0
    4.8101   -1.1169    3.2849 C   0  0
    5.3313   -1.5492    4.4855 C   0  0
    6.1970   -0.7362    5.2012 C   0  0
    6.5472    0.5129    4.7116 C   0  0
    6.0364    0.9527    3.5094 C   0  0
    6.7012   -1.1628    6.3798 F   0  0
    4.0736    0.5041   -5.7432 H   0  0
    3.2957    2.0930   -5.8211 H   0  0
    2.3768    0.6273   -6.4152 H   0  0
    0.7967   -0.0652   -4.7722 H   0  0
    0.0704   -0.3039   -2.4117 H   0  0
    3.7282    1.5664   -1.1067 H   0  0
    4.4542    1.7831   -3.4694 H   0  0
    3.3655   -2.0245   -0.3798 H   0  0
    6.1847   -0.0372    1.0624 H   0  0
    6.0410    0.3262   -0.6649 H   0  0
    7.4242   -0.7246   -0.0931 H   0  0
    5.3875   -3.1684   -1.3455 H   0  0
    5.5313   -3.5316    0.3819 H   0  0
    7.0080   -2.9502   -0.5266 H   0  0
    4.1166   -1.7591    2.7221 H   0  0
    5.0600   -2.5409    4.8765 H   0  0
    7.2340    1.1540    5.2837 H   0  0
    6.3153    1.9436    3.1217 H   0  0
  1  2  1  0
  2  7  2  0
  2  3  1  0
  3  4  2  0
  4  5  1  0
  5  6  2  0
  5  8  1  0
  6  7  1  0
  8 12  1  0
  8  9  1  0
  9 10  2  0
  9 13  1  0
 10 11  1  0
 11 12  2  0
 13 14  2  0
 13 18  1  0
 14 15  1  0
 15 16  1  0
 15 17  1  0
 18 19  2  0
 18 20  1  0
 20 25  2  0
 20 21  1  0
 21 22  2  0
 22 23  1  0
 23 24  2  0
 23 26  1  0
 24 25  1  0
  1 27  1  0
  1 28  1  0
  1 29  1  0
  3 30  1  0
  4 31  1  0
  6 32  1  0
  7 33  1  0
 14 34  1  0
 16 35  1  0
 16 36  1  0
 16 37  1  0
 17 38  1  0
 17 39  1  0
 17 40  1  0
 21 41  1  0
 22 42  1  0
 24 43  1  0
 25 44  1  0
M  END
> <Name>
ZINC06301102

> <reference>
BDB50272145

> <quality>
0.722

> <status>
decoy

$$$$
ZINC07553410
  SciTegic06061311253D

 35 36  0  0  0  0            999 V2000
   -0.0318    3.8540    0.0226 C   0  0
   -1.2362    3.1459    0.0308 C   0  0
   -1.2186    1.7483    0.0173 C   0  0
   -0.0126    1.0758    0.0080 C   0  0
    1.1773    1.7824    0.0004 C   0  0
    1.1670    3.1702    0.0075 C   0  0
    2.3327    3.8531   -0.0009 F   0  0
    2.6891    0.9293   -0.0186 Cl  0  0
   -2.7099    0.8597    0.0196 Cl  0  0
   -2.5218    3.8706    0.0464 C   0  0
   -3.5676    3.2524    0.0535 O   0  0
   -2.5356    5.2178    0.0528 O   0  0
   -3.8360    5.8636    0.0682 C   0  0
   -3.6539    7.3596    0.0735 C   0  0
   -2.5381    7.8347    0.0651 O   0  0
   -4.7311    8.1695    0.0875 N   0  5
   -4.5541    9.6238    0.0927 C   0  0  2  0  0  0
   -3.8047   10.0604    1.3684 C   0  0
   -4.4703   11.4045    1.7578 C   0  0
   -5.9621   11.1580    1.4221 C   0  0
   -5.9251   10.3215    0.1264 C   0  0
   -3.8036   10.0442   -1.1018 C   0  0
   -3.2244   10.3687   -2.0237 N   0  0
   -0.0390    4.9540    0.0282 H   0  0
    0.0023   -0.0241    0.0066 H   0  0
   -4.3873    5.5589    0.9700 H   0  0
   -4.4035    5.5670   -0.8262 H   0  0
   -2.7385   10.2169    1.1477 H   0  0
   -3.9538    9.3194    2.1676 H   0  0
   -4.3485   11.5924    2.8348 H   0  0
   -4.0712   12.2220    1.1394 H   0  0
   -6.4731   12.1149    1.2396 H   0  0
   -6.4418   10.5844    2.2288 H   0  0
   -6.7277    9.5695    0.1453 H   0  0
   -6.0297   10.9821   -0.7469 H   0  0
  1  6  2  0
  1  2  1  0
  2  3  2  0
  2 10  1  0
  3  4  1  0
  3  9  1  0
  4  5  2  0
  5  6  1  0
  5  8  1  0
  6  7  1  0
 10 11  2  0
 10 12  1  0
 12 13  1  0
 13 14  1  0
 14 15  2  0
 14 16  1  0
 16 17  1  0
 17 21  1  0
 17 18  1  0
 17 22  1  0
 18 19  1  0
 19 20  1  0
 20 21  1  0
 22 23  3  0
  1 24  1  0
  4 25  1  0
 13 26  1  0
 13 27  1  0
 18 28  1  0
 18 29  1  0
 19 30  1  0
 19 31  1  0
 20 32  1  0
 20 33  1  0
 21 34  1  0
 21 35  1  0
M  CHG  1  16  -1
M  END
> <Name>
ZINC07553410

> <reference>
BDB50272145

> <quality>
0.721

> <status>
decoy

$$$$
ZINC28577289
  SciTegic06061311253D

 36 37  0  0  1  0            999 V2000
   -1.7106    3.6338    6.1250 C   0  0
   -2.1590    2.4686    5.2406 C   0  0
   -2.3343    2.9586    3.8018 C   0  0  2  0  0  0
   -3.4776    3.9736    3.7444 C   0  0
   -2.6472    1.8210    2.9333 N   0  0
   -1.9181    1.4054    1.8726 C   0  0
   -2.5461    0.3197    1.3425 C   0  0
   -3.6927    0.0751    2.1035 C   0  0
   -3.7559    0.9734    3.0527 N   0  0
   -0.7371    1.9796    1.4106 N   0  0
   -0.0135    1.3960    0.0401 S   0  0
    1.1689    2.1603   -0.1519 O   0  0
   -1.0303    1.3043   -0.9484 O   0  0
    0.5031   -0.2528    0.3855 C   0  0
   -0.0583   -1.3116   -0.3033 C   0  0
    0.3473   -2.6060   -0.0321 C   0  0
    1.3150   -2.8409    0.9288 C   0  0
    1.8759   -1.7825    1.6176 C   0  0
    1.4746   -0.4872    1.3420 C   0  0
    2.1848    0.8431    2.2019 Cl  0  0
   -0.3574   -3.9357   -0.8975 Cl  0  0
   -2.4705    4.4287    6.0992 H   0  0
   -0.7537    4.0299    5.7542 H   0  0
   -1.5844    3.2822    7.1596 H   0  0
   -1.3984    1.6744    5.2668 H   0  0
   -3.1159    2.0724    5.6114 H   0  0
   -1.4034    3.4352    3.4608 H   0  0
   -3.2436    4.8283    4.3961 H   0  0
   -4.4091    3.4979    4.0850 H   0  0
   -3.6042    4.3263    2.7102 H   0  0
   -2.2108   -0.2613    0.4707 H   0  0
   -4.4180   -0.7343    1.9335 H   0  0
   -0.3133    2.7674    1.9212 H   0  0
   -0.8276   -1.1249   -1.0671 H   0  0
    1.6377   -3.8702    1.1443 H   0  0
    2.6414   -1.9696    2.3850 H   0  0
  1  2  1  0
  2  3  1  0
  3  4  1  0
  3  5  1  0
  5  9  1  0
  5  6  1  0
  6  7  2  0
  6 10  1  0
  7  8  1  0
  8  9  2  0
 10 11  1  0
 11 12  2  0
 11 13  2  0
 11 14  1  0
 14 19  2  0
 14 15  1  0
 15 16  2  0
 16 17  1  0
 16 21  1  0
 17 18  2  0
 18 19  1  0
 19 20  1  0
  1 22  1  0
  1 23  1  0
  1 24  1  0
  2 25  1  0
  2 26  1  0
  3 27  1  0
  4 28  1  0
  4 29  1  0
  4 30  1  0
  7 31  1  0
  8 32  1  0
 10 33  1  0
 15 34  1  0
 17 35  1  0
 18 36  1  0
M  END
> <Name>
ZINC28577289

> <reference>
BDB50272145

> <quality>
0.719

> <status>
decoy

$$$$
ZINC28035785
  SciTegic06061311253D

 48 49  0  0  0  0            999 V2000
   -5.1035    1.5472   -3.6888 C   0  0
   -4.3635    1.0403   -2.4493 C   0  0
   -2.9281    1.5699   -2.4602 C   0  0  2  0  0  0
   -2.9488    3.0997   -2.4518 C   0  0
   -2.2119    1.0765   -3.7190 C   0  0
   -2.1881    1.0631   -1.2207 C   0  0  1  0  0  0
   -0.7527    1.5927   -1.2315 C   0  0
   -0.0127    1.0858    0.0080 C   0  0
   -0.7288    1.5792    1.2668 C   0  0  2  0  0  0
   -2.1642    1.0497    1.2777 C   0  0
   -2.9042    1.5565    0.0381 C   0  0
   -0.7487    3.0441    1.2749 N   0  0
   -0.6213    3.8660    2.7068 S   0  0
   -0.6449    5.2497    2.3843 O   0  0
   -1.5569    3.2756    3.5986 O   0  0
    0.9797    3.5285    3.3606 C   0  0
    2.0989    4.2412    3.1228 C   0  0
    3.1086    3.6375    3.8225 N   0  0
    2.5713    2.5761    4.4640 C   0  0
    1.2975    2.5205    4.1870 N   0  0
    4.5099    4.0624    3.8675 C   0  0
    2.2336    5.6532    2.1218 Cl  0  0
   -4.5896    1.1928   -4.5945 H   0  0
   -5.1192    2.6471   -3.6835 H   0  0
   -6.1356    1.1668   -3.6816 H   0  0
   -4.3478   -0.0596   -2.4545 H   0  0
   -4.8779    1.3954   -1.5442 H   0  0
   -3.4633    3.4555   -1.5470 H   0  0
   -3.4804    3.4651   -3.3428 H   0  0
   -1.9171    3.4811   -2.4596 H   0  0
   -2.7430    1.4406   -4.6108 H   0  0
   -2.1962   -0.0234   -3.7259 H   0  0
   -1.1798    1.4569   -3.7274 H   0  0
   -2.1732   -0.0368   -1.2268 H   0  0
   -0.2375    1.2376   -2.1362 H   0  0
   -0.7664    2.6926   -1.2252 H   0  0
    1.0194    1.4662    0.0013 H   0  0
    0.0018   -0.0141    0.0023 H   0  0
   -0.1967    1.2148    2.1579 H   0  0
   -2.6801    1.4042    2.1822 H   0  0
   -2.1495   -0.0502    1.2712 H   0  0
   -3.9363    1.1761    0.0471 H   0  0
   -2.9187    2.6564    0.0445 H   0  0
   -0.8419    3.5628    0.3899 H   0  0
    3.1175    1.8752    5.1123 H   0  0
    4.4272    5.1118    4.1867 H   0  0
    4.7797    4.0961    2.8016 H   0  0
    5.1922    3.4586    4.4839 H   0  0
  1  2  1  0
  2  3  1  0
  3  4  1  0
  3  5  1  0
  3  6  1  0
  6 11  1  0
  6  7  1  0
  7  8  1  0
  8  9  1  0
  9 10  1  0
  9 12  1  0
 10 11  1  0
 12 13  1  0
 13 14  2  0
 13 15  2  0
 13 16  1  0
 16 20  1  0
 16 17  2  0
 17 18  1  0
 17 22  1  0
 18 19  1  0
 18 21  1  0
 19 20  2  0
  1 23  1  0
  1 24  1  0
  1 25  1  0
  2 26  1  0
  2 27  1  0
  4 28  1  0
  4 29  1  0
  4 30  1  0
  5 31  1  0
  5 32  1  0
  5 33  1  0
  6 34  1  0
  7 35  1  0
  7 36  1  0
  8 37  1  0
  8 38  1  0
  9 39  1  0
 10 40  1  0
 10 41  1  0
 11 42  1  0
 11 43  1  0
 12 44  1  0
 19 45  1  0
 21 46  1  0
 21 47  1  0
 21 48  1  0
M  END
> <Name>
ZINC28035785

> <reference>
BDB50272145

> <quality>
0.719

> <status>
decoy

$$$$
ZINC02885055
  SciTegic06061311253D

 53 54  0  0  1  0            999 V2000
   -0.1165    2.2333   -0.0751 C   0  0
   -0.7507    2.4844    1.2945 C   0  0
   -0.0067    1.7908    2.2982 O   0  0
   -0.3771    1.9921    3.5902 C   0  0
   -1.5019    2.7509    3.8805 C   0  0
   -1.8762    2.9541    5.1944 C   0  0
   -1.1313    2.4016    6.2201 C   0  0
   -0.0105    1.6448    5.9335 C   0  0
    0.3654    1.4346    4.6207 C   0  0
    1.7902    0.4643    4.2560 S   0  0
    2.5570    1.2057    3.3170 O   0  0
    2.3199    0.0358    5.5031 O   0  0
    1.2678   -0.8969    3.4709 N   0  0
    1.2588   -0.9672    2.0011 C   0  0
    1.9684   -2.2638    1.5791 C   0  0  1  0  0  0
    1.3789   -3.3675    2.2706 O   0  0
    1.5203   -3.3106    3.6920 C   0  0  2  0  0  0
    0.7930   -2.0697    4.2223 C   0  0
    3.0043   -3.2272    4.0550 C   0  0
    1.8106   -2.4629    0.0703 C   0  0
   -1.5423    2.6245    7.6528 C   0  0  1  0  0  0
   -1.9314    1.2869    8.2857 C   0  0
   -0.3742    3.2355    8.4293 C   0  0
   -3.0977    3.7782    5.5104 C   0  0
   -0.1256    1.1550   -0.2924 H   0  0
    0.9215    2.5973   -0.0720 H   0  0
   -0.6887    2.7669   -0.8483 H   0  0
   -1.7887    2.1204    1.2914 H   0  0
   -0.7409    3.5628    1.5111 H   0  0
   -2.0950    3.1903    3.0649 H   0  0
    0.5826    1.2096    6.7513 H   0  0
    1.7944   -0.1013    1.5847 H   0  0
    0.2208   -0.9794    1.6373 H   0  0
    3.0378   -2.1996    1.8285 H   0  0
    1.0853   -4.2147    4.1430 H   0  0
    1.0175   -1.9396    5.2913 H   0  0
   -0.2910   -2.1884    4.0781 H   0  0
    3.4418   -2.3227    3.6072 H   0  0
    3.5270   -4.1154    3.6705 H   0  0
    3.1134   -3.1834    5.1487 H   0  0
    2.2584   -1.6108   -0.4621 H   0  0
    0.7421   -2.5318   -0.1820 H   0  0
    2.3181   -3.3906   -0.2327 H   0  0
   -2.4024    3.3095    7.6852 H   0  0
   -1.0718    0.6012    8.2540 H   0  0
   -2.7714    0.8469    7.7283 H   0  0
   -2.2315    1.4488    9.3315 H   0  0
   -0.0938    4.1973    7.9752 H   0  0
    0.4864    2.5511    8.3977 H   0  0
   -0.6735    3.3985    9.4752 H   0  0
   -3.9204    3.2900    4.9675 H   0  0
   -2.9201    4.7500    5.0266 H   0  0
   -3.3027    3.8750    6.5868 H   0  0
  1  2  1  0
  2  3  1  0
  3  4  1  0
  4  9  2  0
  4  5  1  0
  5  6  2  0
  6  7  1  0
  6 24  1  0
  7  8  2  0
  7 21  1  0
  8  9  1  0
  9 10  1  0
 10 11  2  0
 10 12  2  0
 10 13  1  0
 13 18  1  0
 13 14  1  0
 14 15  1  0
 15 16  1  0
 15 20  1  0
 16 17  1  0
 17 18  1  0
 17 19  1  0
 21 22  1  0
 21 23  1  0
  1 25  1  0
  1 26  1  0
  1 27  1  0
  2 28  1  0
  2 29  1  0
  5 30  1  0
  8 31  1  0
 14 32  1  0
 14 33  1  0
 15 34  1  0
 17 35  1  0
 18 36  1  0
 18 37  1  0
 19 38  1  0
 19 39  1  0
 19 40  1  0
 20 41  1  0
 20 42  1  0
 20 43  1  0
 21 44  1  0
 22 45  1  0
 22 46  1  0
 22 47  1  0
 23 48  1  0
 23 49  1  0
 23 50  1  0
 24 51  1  0
 24 52  1  0
 24 53  1  0
M  END
> <Name>
ZINC02885055

> <reference>
BDB50272145

> <quality>
0.704

> <status>
decoy

$$$$
ZINC29902838
  SciTegic06061311253D

 44 47  0  0  0  0            999 V2000
    7.7992    4.7373   -4.8438 C   0  0
    7.8911    4.7580   -3.4179 O   0  0
    6.7978    4.3484   -2.7234 C   0  0
    6.8204    4.3439   -1.3351 C   0  0
    5.7123    3.9283   -0.6276 C   0  0
    4.5687    3.5125   -1.3073 C   0  0
    4.5507    3.5131   -2.7011 C   0  0
    5.6599    3.9347   -3.4033 C   0  0
    3.3750    3.0642   -0.5489 C   0  0
    2.1402    2.6075   -1.0892 C   0  0
    1.3913    2.3274    0.0013 C   0  0
    2.1527    2.5982    1.0711 O   0  0
    3.2463    3.0046    0.7537 N   0  0
   -0.0225    1.8057    0.0120 C   0  0
    0.0021   -0.0041    0.0020 S   0  0
   -1.7288   -0.3336    0.0168 C   0  0
   -2.6944    0.5596    0.0303 N   0  0
   -3.8413   -0.0181    0.0383 N   0  0
   -3.6979   -1.2991    0.0307 N   0  0
   -2.3154   -1.5539    0.0104 N   0  0
   -1.6518   -2.8598   -0.0104 C   0  0  2  0  0  0
   -2.1121   -3.6669   -1.2419 C   0  0
   -2.1973   -5.1265   -0.7283 C   0  0
   -2.7509   -4.9526    0.7078 C   0  0
   -2.0574   -3.6769    1.2287 C   0  0
    6.9391    5.3703   -5.1075 H   0  0
    7.5543    3.7019   -5.1229 H   0  0
    8.7214    5.0819   -5.3346 H   0  0
    7.7232    4.6722   -0.7992 H   0  0
    5.7308    3.9249    0.4722 H   0  0
    3.6525    3.1776   -3.2403 H   0  0
    5.6434    3.9433   -4.5031 H   0  0
    1.8600    2.5059   -2.1481 H   0  0
   -0.5374    2.1598    0.9173 H   0  0
   -0.5555    2.1693   -0.8789 H   0  0
   -0.5659   -2.6856   -0.0331 H   0  0
   -1.3649   -3.5924   -2.0457 H   0  0
   -3.1041   -3.3235   -1.5707 H   0  0
   -2.9037   -5.7057   -1.3411 H   0  0
   -1.1956   -5.5800   -0.6976 H   0  0
   -2.4707   -5.8157    1.3296 H   0  0
   -3.8406   -4.8052    0.6781 H   0  0
   -2.7590   -3.0971    1.8464 H   0  0
   -1.1617   -3.9489    1.8064 H   0  0
  1  2  1  0
  2  3  1  0
  3  8  2  0
  3  4  1  0
  4  5  2  0
  5  6  1  0
  6  7  2  0
  6  9  1  0
  7  8  1  0
  9 13  2  0
  9 10  1  0
 10 11  2  0
 11 12  1  0
 11 14  1  0
 12 13  1  0
 14 15  1  0
 15 16  1  0
 16 20  1  0
 16 17  2  0
 17 18  1  0
 18 19  2  0
 19 20  1  0
 20 21  1  0
 21 25  1  0
 21 22  1  0
 22 23  1  0
 23 24  1  0
 24 25  1  0
  1 26  1  0
  1 27  1  0
  1 28  1  0
  4 29  1  0
  5 30  1  0
  7 31  1  0
  8 32  1  0
 10 33  1  0
 14 34  1  0
 14 35  1  0
 21 36  1  0
 22 37  1  0
 22 38  1  0
 23 39  1  0
 23 40  1  0
 24 41  1  0
 24 42  1  0
 25 43  1  0
 25 44  1  0
M  END
> <Name>
ZINC29902838

> <reference>
BDB50272145

> <quality>
0.702

> <status>
decoy

$$$$
ZINC07166787
  SciTegic06061311253D

 42 43  0  0  0  0            999 V2000
   -1.2658    6.7107    0.0498 C   0  0
    0.0788    6.0304    0.0327 C   0  0
    0.2789    4.7012    0.0176 C   0  0
    1.7325    4.4975    0.0087 C   0  0
    2.2930    5.7595    0.0095 C   0  0
    1.2860    6.6660    0.0240 N   0  0
    1.4674    8.1197    0.0287 C   0  0
    1.5158    8.6323   -1.4121 C   0  0  1  0  0  0
    1.5798   10.1609   -1.4076 C   0  0
    2.7558    8.0719   -2.1114 C   0  0
    3.7669    6.0736   -0.0038 C   0  0
    2.4444    3.2150   -0.0047 C   0  0
    1.7452    2.0497   -0.0036 C   0  0
    2.2354    0.6604   -0.0157 C   0  0
    3.4255    0.4030   -0.0281 O   0  0
    1.3194   -0.2933   -0.0121 N   0  0
    0.0021   -0.0041    0.0020 C   0  0
   -1.3247   -1.0861    0.0089 S   0  0
   -0.0221    1.7814    0.0118 S   0  0
    1.7448   -1.6951   -0.0232 C   0  0
    1.8776   -2.1685   -1.4478 C   0  0
    1.6411   -1.4125   -2.3601 O   0  0
    2.2586   -3.4300   -1.7030 O   0  5
   -1.2148    7.3747   -0.8257 H   0  0
   -1.1972    7.3653    0.9311 H   0  0
   -2.1436    6.0478    0.0551 H   0  0
   -0.4950    3.9195    0.0128 H   0  0
    2.4092    8.3712    0.5384 H   0  0
    0.6267    8.5926    0.5575 H   0  0
    0.6130    8.3047   -1.9484 H   0  0
    2.4825   10.4896   -0.8718 H   0  0
    0.6884   10.5648   -0.9053 H   0  0
    1.6146   10.5301   -2.4432 H   0  0
    2.7105    6.9728   -2.1154 H   0  0
    3.6593    8.3991   -1.5760 H   0  0
    2.7912    8.4401   -3.1474 H   0  0
    4.1205    5.5223   -0.8876 H   0  0
    4.1382    5.5133    0.8669 H   0  0
    4.0410    7.1389   -0.0011 H   0  0
    3.5442    3.1965   -0.0156 H   0  0
    0.9972   -2.3105    0.4987 H   0  0
    2.7157   -1.7878    0.4854 H   0  0
  1  2  1  0
  2  6  1  0
  2  3  2  0
  3  4  1  0
  4  5  2  0
  4 12  1  0
  5  6  1  0
  5 11  1  0
  6  7  1  0
  7  8  1  0
  8  9  1  0
  8 10  1  0
 12 13  2  0
 13 19  1  0
 13 14  1  0
 14 15  2  0
 14 16  1  0
 16 17  1  0
 16 20  1  0
 17 18  2  0
 17 19  1  0
 20 21  1  0
 21 22  2  0
 21 23  1  0
  1 24  1  0
  1 25  1  0
  1 26  1  0
  3 27  1  0
  7 28  1  0
  7 29  1  0
  8 30  1  0
  9 31  1  0
  9 32  1  0
  9 33  1  0
 10 34  1  0
 10 35  1  0
 10 36  1  0
 11 37  1  0
 11 38  1  0
 11 39  1  0
 12 40  1  0
 20 41  1  0
 20 42  1  0
M  CHG  1  23  -1
M  END
> <Name>
ZINC07166787

> <reference>
BDB50272145

> <quality>
0.697

> <status>
decoy

$$$$
ZINC25317291
  SciTegic06061311253D

 45 47  0  0  0  0            999 V2000
   -3.4603   -5.1980   -0.2248 C   0  0
   -2.2068   -4.3615   -0.2222 C   0  0
   -1.0569   -4.8420   -0.8230 C   0  0
    0.0941   -4.0815   -0.8237 C   0  0
    0.0968   -2.8248   -0.2166 C   0  0
   -1.0651   -2.3482    0.3924 C   0  0
   -2.2109   -3.1165    0.3814 C   0  0
    1.3271   -2.0044   -0.2131 C   0  0
    2.5379   -2.5984   -0.1950 C   0  0
    3.6458   -1.1985   -0.1995 S   0  0
    2.4143    0.0944   -0.2313 C   0  0
    2.5786    1.3928   -0.2499 N   0  0
    3.9292    1.9604   -0.2485 C   0  0
    4.1293    2.8037   -1.5094 C   0  0
    3.2470    3.9273   -1.4759 O   0  0
    3.3542    4.7845   -2.6142 C   0  0
    1.2429   -0.6372   -0.2288 N   0  0
   -0.0026    0.0041   -0.2478 N   0  0
   -0.1139    1.2193    0.1953 C   0  0
   -1.3917    1.9414    0.0539 C   0  0
   -1.5269    3.2513    0.5330 C   0  0
   -2.7451    3.8861    0.3704 C   0  0
   -3.7845    3.2105   -0.2443 C   0  0
   -3.6307    1.9752   -0.6810 N   0  0
   -2.4900    1.3296   -0.5547 C   0  0
   -4.2264   -4.5654   -0.6969 H   0  0
   -3.7351   -5.3064    0.8348 H   0  0
   -3.3458   -6.1680   -0.7308 H   0  0
   -1.0604   -5.8326   -1.3012 H   0  0
    1.0077   -4.4647   -1.3017 H   0  0
   -1.0672   -1.3622    0.8800 H   0  0
   -3.1297   -2.7385    0.8535 H   0  0
    2.7807   -3.6712   -0.1810 H   0  0
    4.6699    1.1473   -0.2308 H   0  0
    4.0596    2.5947    0.6407 H   0  0
    5.1702    3.1567   -1.5532 H   0  0
    3.9113    2.1936   -2.3983 H   0  0
    3.1444    4.1776   -3.5073 H   0  0
    4.3955    5.1350   -2.6685 H   0  0
    2.6589    5.6343   -2.5471 H   0  0
    0.7450    1.7102    0.6762 H   0  0
   -0.6861    3.7615    1.0256 H   0  0
   -2.8861    4.9174    0.7261 H   0  0
   -4.7554    3.7119   -0.3710 H   0  0
   -2.4013    0.3000   -0.9316 H   0  0
  1  2  1  0
  2  7  2  0
  2  3  1  0
  3  4  2  0
  4  5  1  0
  5  6  2  0
  5  8  1  0
  6  7  1  0
  8 17  1  0
  8  9  2  0
  9 10  1  0
 10 11  1  0
 11 12  2  0
 11 17  1  0
 12 13  1  0
 13 14  1  0
 14 15  1  0
 15 16  1  0
 17 18  1  0
 18 19  2  0
 19 20  1  0
 20 25  2  0
 20 21  1  0
 21 22  2  0
 22 23  1  0
 23 24  2  0
 24 25  1  0
  1 26  1  0
  1 27  1  0
  1 28  1  0
  3 29  1  0
  4 30  1  0
  6 31  1  0
  7 32  1  0
  9 33  1  0
 13 34  1  0
 13 35  1  0
 14 36  1  0
 14 37  1  0
 16 38  1  0
 16 39  1  0
 16 40  1  0
 19 41  1  0
 21 42  1  0
 22 43  1  0
 23 44  1  0
 25 45  1  0
M  END
> <Name>
ZINC25317291

> <reference>
BDB50272145

> <quality>
0.697

> <status>
decoy

$$$$
ZINC23506369
  SciTegic06061311253D

 36 38  0  0  0  0            999 V2000
   -0.2051  -10.9269   -0.0560 C   0  0
    0.0524   -9.4421   -0.0502 C   0  0
    0.1583   -8.7543   -1.2447 C   0  0
    0.3945   -7.3923   -1.2394 C   0  0
    0.5240   -6.7179   -0.0397 C   0  0
    0.4229   -7.4065    1.1546 C   0  0
    0.1824   -8.7677    1.1495 C   0  0
    0.7815   -5.2331   -0.0340 C   0  0
   -0.8002   -4.3452   -0.0141 S   0  0
   -0.3351   -2.6457   -0.0091 C   0  0
    0.8688   -2.0919   -0.0171 N   0  0
    1.0273   -0.8407   -0.0118 N   0  0
    0.0021   -0.0041    0.0020 C   0  0
   -1.3538   -1.1734    0.0160 S   0  0
   -0.0168    1.3868    0.0097 N   0  5
    1.1411    2.0765    0.0023 C   0  0
    2.2024    1.4829   -0.0110 O   0  0
    1.1211    3.5508    0.0104 C   0  0
    2.2037    4.3883    0.0046 C   0  0
    1.6319    5.6797    0.0161 C   0  0
    0.3411    5.5146    0.0271 N   0  0
    0.0342    4.3454    0.0191 O   0  0
    2.3721    6.9924    0.0150 C   0  0
   -1.1204  -11.0605    0.5393 H   0  0
    0.6242  -11.3630    0.5203 H   0  0
   -0.2911  -11.3599   -1.0635 H   0  0
    0.0546   -9.2908   -2.1994 H   0  0
    0.4794   -6.8451   -2.1899 H   0  0
    0.5338   -6.8712    2.1091 H   0  0
    0.0945   -9.3143    2.1000 H   0  0
    1.3630   -4.9650    0.8604 H   0  0
    1.3462   -4.9542   -0.9358 H   0  0
    3.2701    4.1186   -0.0064 H   0  0
    3.0211    6.8906   -0.8673 H   0  0
    3.0381    6.8825    0.8836 H   0  0
    1.7632    7.9085    0.0251 H   0  0
  1  2  1  0
  2  7  2  0
  2  3  1  0
  3  4  2  0
  4  5  1  0
  5  6  2  0
  5  8  1  0
  6  7  1  0
  8  9  1  0
  9 10  1  0
 10 14  1  0
 10 11  2  0
 11 12  1  0
 12 13  2  0
 13 14  1  0
 13 15  1  0
 15 16  1  0
 16 17  2  0
 16 18  1  0
 18 22  1  0
 18 19  2  0
 19 20  1  0
 20 21  2  0
 20 23  1  0
 21 22  1  0
  1 24  1  0
  1 25  1  0
  1 26  1  0
  3 27  1  0
  4 28  1  0
  6 29  1  0
  7 30  1  0
  8 31  1  0
  8 32  1  0
 19 33  1  0
 23 34  1  0
 23 35  1  0
 23 36  1  0
M  CHG  1  15  -1
M  END
> <Name>
ZINC23506369

> <reference>
BDB50272145

> <quality>
0.696

> <status>
decoy

$$$$
ZINC12398876
  SciTegic06061311253D

 36 38  0  0  0  0            999 V2000
   -2.1634   -1.6686    0.0080 C   0  0
   -3.4894   -1.9650    0.0248 C   0  0
   -4.4134   -0.8952    0.0394 C   0  0
   -5.7915   -0.7982    0.0535 C   0  0
   -6.1109    0.5024    0.0638 N   0  0
   -4.9475    1.2797    0.0566 N   0  0
   -3.8962    0.4819    0.0418 C   0  0
   -2.5672    0.6804    0.0302 N   0  0
   -1.7288   -0.3336    0.0168 C   0  0
    0.0021   -0.0041    0.0020 S   0  0
   -0.0225    1.8057    0.0120 C   0  0
    1.3913    2.3274    0.0013 C   0  0
    2.3202    1.5548   -0.0117 O   0  0
   -7.4764    1.0328    0.0806 C   0  0  2  0  0  0
   -8.4015    0.0857    0.8724 C   0  0
   -9.7415    0.1274    0.0953 C   0  0
   -9.2792    0.1873   -1.3818 C   0  0
   -8.0343    1.0978   -1.3520 C   0  0
   -3.9624   -3.3958    0.0211 C   0  0  1  0  0  0
   -2.8566   -4.2525    0.0061 F   0  0
   -4.7244   -3.6380    1.1692 F   0  0
   -4.7455   -3.6251   -1.1153 F   0  0
    1.6187    3.6502    0.0062 O   0  5
   -1.4235   -2.4823   -0.0127 H   0  0
   -6.5002   -1.6394    0.0558 H   0  0
   -0.5370    2.1615    0.9168 H   0  0
   -0.5540    2.1702   -0.8794 H   0  0
   -7.4441    2.0318    0.5398 H   0  0
   -8.5462    0.4636    1.8953 H   0  0
   -7.9928   -0.9355    0.8663 H   0  0
  -10.3166   -0.7925    0.2772 H   0  0
  -10.3056    1.0354    0.3545 H   0  0
  -10.0633    0.6397   -2.0067 H   0  0
   -9.0039   -0.8180   -1.7333 H   0  0
   -7.2830    0.7251   -2.0638 H   0  0
   -8.3225    2.1314   -1.5941 H   0  0
  1  9  1  0
  1  2  2  0
  2  3  1  0
  2 19  1  0
  3  7  1  0
  3  4  2  0
  4  5  1  0
  5  6  1  0
  5 14  1  0
  6  7  2  0
  7  8  1  0
  8  9  2  0
  9 10  1  0
 10 11  1  0
 11 12  1  0
 12 13  2  0
 12 23  1  0
 14 18  1  0
 14 15  1  0
 15 16  1  0
 16 17  1  0
 17 18  1  0
 19 20  1  0
 19 21  1  0
 19 22  1  0
  1 24  1  0
  4 25  1  0
 11 26  1  0
 11 27  1  0
 14 28  1  0
 15 29  1  0
 15 30  1  0
 16 31  1  0
 16 32  1  0
 17 33  1  0
 17 34  1  0
 18 35  1  0
 18 36  1  0
M  CHG  1  23  -1
M  END
> <Name>
ZINC12398876

> <reference>
BDB50272145

> <quality>
0.694

> <status>
decoy

$$$$
ZINC25014323
  SciTegic06061311253D

 42 44  0  0  0  0            999 V2000
    4.8407    6.2042   -1.2780 C   0  0
    4.0196    5.1477   -0.5846 C   0  0
    4.4465    4.3434    0.4774 C   0  0
    3.4235    3.5251    0.8178 C   0  0
    2.3846    3.8027   -0.0016 N   0  0
    2.7862    4.8204   -0.8764 N   0  0
    1.1290    3.1782    0.0171 C   0  0
    1.0406    1.7941    0.0207 C   0  0
   -0.1976    1.1808    0.0391 C   0  0
   -1.3518    1.9431    0.0487 C   0  0
   -1.2735    3.3225    0.0514 C   0  0
   -0.0343    3.9470    0.0326 C   0  0
    0.0475    5.3434    0.0286 N   0  0
   -0.9713    6.0767   -0.4621 C   0  0
   -1.9909    5.5283   -0.8352 O   0  0
   -0.8501    7.5409   -0.5464 C   0  0
   -1.7698    8.4657   -1.0196 C   0  0
   -1.4387    9.7907   -0.9983 C   0  0
   -0.1910   10.1584   -0.5142 C   0  0
    0.5209    8.5818   -0.0732 S   0  0
    0.3940   11.5016   -0.3949 C   0  0
   -0.2421   12.4752   -0.7483 O   0  0
    1.6362   11.6537    0.1067 O   0  0
    2.1499   13.0089    0.1954 C   0  0
    3.4395    2.4910    1.9138 C   0  0
    4.2072    7.0996   -1.1949 H   0  0
    4.7960    5.8953   -2.3328 H   0  0
    5.8635    6.3458   -0.8987 H   0  0
    5.4384    4.3711    0.9520 H   0  0
    1.9562    1.1845    0.0089 H   0  0
   -0.2656    0.0829    0.0461 H   0  0
   -2.3349    1.4496    0.0542 H   0  0
   -2.1932    3.9256    0.0684 H   0  0
    0.8863    5.8112    0.4007 H   0  0
   -2.7468    8.1381   -1.4045 H   0  0
   -2.1471   10.5515   -1.3578 H   0  0
    1.4345   13.5716    0.8131 H   0  0
    2.1139   13.4212   -0.8238 H   0  0
    3.1665   13.0502    0.6135 H   0  0
    3.7352    3.0802    2.7944 H   0  0
    4.3159    1.8795    1.6530 H   0  0
    2.5147    1.9119    2.0526 H   0  0
  1  2  1  0
  2  6  2  0
  2  3  1  0
  3  4  2  0
  4  5  1  0
  4 25  1  0
  5  6  1  0
  5  7  1  0
  7 12  2  0
  7  8  1  0
  8  9  2  0
  9 10  1  0
 10 11  2  0
 11 12  1  0
 12 13  1  0
 13 14  1  0
 14 15  2  0
 14 16  1  0
 16 20  1  0
 16 17  2  0
 17 18  1  0
 18 19  2  0
 19 20  1  0
 19 21  1  0
 21 22  2  0
 21 23  1  0
 23 24  1  0
  1 26  1  0
  1 27  1  0
  1 28  1  0
  3 29  1  0
  8 30  1  0
  9 31  1  0
 10 32  1  0
 11 33  1  0
 13 34  1  0
 17 35  1  0
 18 36  1  0
 24 37  1  0
 24 38  1  0
 24 39  1  0
 25 40  1  0
 25 41  1  0
 25 42  1  0
M  END
> <Name>
ZINC25014323

> <reference>
BDB50272145

> <quality>
0.694

> <status>
decoy

$$$$
ZINC26692348
  SciTegic06061311253D

 36 38  0  0  0  0            999 V2000
    1.9134   -3.1506    1.1467 C   0  0
    1.1404   -2.1989    0.2705 C   0  0
   -0.1702   -1.8596    0.6038 C   0  0
   -0.8606   -0.9947   -0.2010 C   0  0
   -0.2436   -0.4898   -1.3073 N   0  0
    1.0426   -0.8467   -1.6002 C   0  0
    1.7064   -1.6935   -0.8047 N   0  0
    1.3811   -0.2126   -2.7172 N   0  0
    0.3632    0.5271   -3.1388 C   0  0
   -0.6488    0.3934   -2.3162 N   0  0
    0.3697    1.3898   -4.3744 C   0  0  1  0  0  0
    1.1976    2.4980   -4.1651 F   0  0
    0.8496    0.6475   -5.4588 F   0  0
   -0.9318    1.8247   -4.6464 F   0  0
   -2.1333   -0.6468    0.0954 O   0  0
   -2.4407    0.6765    0.1334 C   0  0
   -1.4352    1.6264    0.0099 C   0  0
   -1.7423    2.9739    0.0429 C   0  0
   -3.0493    3.3844    0.2095 C   0  0
   -4.0665    2.4369    0.3399 C   0  0
   -3.7555    1.0769    0.3010 C   0  0
   -5.4669    2.8725    0.5189 C   0  0
   -6.3500    2.0463    0.6326 O   0  0
   -5.7642    4.1858    0.5561 O   0  0
   -7.1608    4.5407    0.7347 C   0  0
    2.8214   -2.6030    1.4395 H   0  0
    2.2233   -3.9704    0.4820 H   0  0
    1.3426   -3.5096    2.0158 H   0  0
   -0.6433   -2.2819    1.5026 H   0  0
   -0.3905    1.3054   -0.1146 H   0  0
   -0.9423    3.7213   -0.0640 H   0  0
   -3.2895    4.4574    0.2395 H   0  0
   -4.5524    0.3255    0.4032 H   0  0
   -7.4836    4.0659    1.6730 H   0  0
   -7.7096    4.0647   -0.0913 H   0  0
   -7.3223    5.6286    0.7547 H   0  0
  1  2  1  0
  2  7  2  0
  2  3  1  0
  3  4  2  0
  4  5  1  0
  4 15  1  0
  5 10  1  0
  5  6  1  0
  6  7  1  0
  6  8  2  0
  8  9  1  0
  9 10  2  0
  9 11  1  0
 11 12  1  0
 11 13  1  0
 11 14  1  0
 15 16  1  0
 16 21  2  0
 16 17  1  0
 17 18  2  0
 18 19  1  0
 19 20  2  0
 20 21  1  0
 20 22  1  0
 22 23  2  0
 22 24  1  0
 24 25  1  0
  1 26  1  0
  1 27  1  0
  1 28  1  0
  3 29  1  0
 17 30  1  0
 18 31  1  0
 19 32  1  0
 21 33  1  0
 25 34  1  0
 25 35  1  0
 25 36  1  0
M  END
> <Name>
ZINC26692348

> <reference>
BDB50272145

> <quality>
0.692

> <status>
decoy

$$$$
ZINC03630054
  SciTegic06061311253D

 47 49  0  0  0  0            999 V2000
    6.6665   -3.5640   -2.6817 C   0  0
    5.3790   -2.7376   -2.6588 C   0  0
    5.1642   -2.1670   -1.2556 C   0  0
    3.8768   -1.3406   -1.2326 C   0  0
    3.6620   -0.7699    0.1706 C   0  0
    2.4292    0.0213    0.1926 N   0  0
    2.4832    1.3398   -0.0951 C   0  0
    3.5394    1.8752   -0.3706 O   0  0
    1.2265    2.1145   -0.0655 C   0  0
    1.2033    3.4779   -0.3499 C   0  0
    0.0091    4.1633   -0.3115 C   0  0
   -1.1762    3.4964    0.0117 C   0  0
   -1.1599    2.1341    0.3018 C   0  0
    0.0379    1.4385    0.2596 C   0  0
    0.0968    0.0802    0.5379 N   0  5
    1.2678   -0.5780    0.4977 C   0  0
    1.2783   -2.2533    0.8505 S   0  0
   -2.4544    4.2428    0.0511 C   0  0
   -3.4304    3.8074   -0.5273 O   0  0
   -2.5353    5.4052    0.7285 N   0  0
   -3.8129    6.1256    0.8467 C   0  0
   -4.0429    6.4529    2.3309 C   0  0
   -2.8887    7.1190    2.8485 O   0  0
   -1.6964    6.3308    2.8208 C   0  0
   -1.3474    5.9944    1.3665 C   0  0
    6.5864   -4.3896   -1.9593 H   0  0
    7.5194   -2.9235   -2.4126 H   0  0
    6.8216   -3.9746   -3.6903 H   0  0
    5.4601   -1.9121   -3.3813 H   0  0
    4.5261   -3.3780   -2.9279 H   0  0
    5.0826   -2.9920   -0.5327 H   0  0
    6.0158   -1.5254   -0.9852 H   0  0
    3.9579   -0.5151   -1.9551 H   0  0
    3.0239   -1.9810   -1.5017 H   0  0
    4.5135   -0.1282    0.4409 H   0  0
    3.5805   -1.5949    0.8936 H   0  0
    2.1347    4.0050   -0.6041 H   0  0
   -0.0120    5.2399   -0.5361 H   0  0
   -2.0929    1.6132    0.5630 H   0  0
   -4.6323    5.4913    0.4776 H   0  0
   -3.7671    7.0586    0.2658 H   0  0
   -4.9207    7.1083    2.4310 H   0  0
   -4.2114    5.5217    2.8917 H   0  0
   -0.8702    6.8980    3.2743 H   0  0
   -1.8571    5.3996    3.3839 H   0  0
   -0.5187    5.2713    1.3441 H   0  0
   -1.0585    6.9131    0.8350 H   0  0
  1  2  1  0
  2  3  1  0
  3  4  1  0
  4  5  1  0
  5  6  1  0
  6 16  1  0
  6  7  1  0
  7  8  2  0
  7  9  1  0
  9 14  2  0
  9 10  1  0
 10 11  2  0
 11 12  1  0
 12 13  2  0
 12 18  1  0
 13 14  1  0
 14 15  1  0
 15 16  1  0
 16 17  2  0
 18 19  2  0
 18 20  1  0
 20 25  1  0
 20 21  1  0
 21 22  1  0
 22 23  1  0
 23 24  1  0
 24 25  1  0
  1 26  1  0
  1 27  1  0
  1 28  1  0
  2 29  1  0
  2 30  1  0
  3 31  1  0
  3 32  1  0
  4 33  1  0
  4 34  1  0
  5 35  1  0
  5 36  1  0
 10 37  1  0
 11 38  1  0
 13 39  1  0
 21 40  1  0
 21 41  1  0
 22 42  1  0
 22 43  1  0
 24 44  1  0
 24 45  1  0
 25 46  1  0
 25 47  1  0
M  CHG  1  15  -1
M  END
> <Name>
ZINC03630054

> <reference>
BDB50272145

> <quality>
0.692

> <status>
decoy

$$$$
ZINC13634263
  SciTegic06061311253D

 45 48  0  0  1  0            999 V2000
   -8.7889    6.0940   -0.0154 C   0  0
   -7.2738    5.9121    0.0957 C   0  0  1  0  0  0
   -6.7794    6.5384    1.4012 C   0  0
   -6.9373    4.4196    0.0865 C   0  0
   -5.4180    4.2395    0.0719 C   0  0
   -5.0190    2.4700    0.0610 S   0  0
   -3.2575    2.4303    0.0448 C   0  0
   -2.4636    3.5003    0.0414 N   0  0
   -1.1924    3.1168    0.0292 C   0  0
   -0.0482    3.8137    0.0235 N   0  0
    1.1196    3.2105    0.0131 C   0  0
    1.1684    1.7992    0.0006 C   0  0
   -0.0126    1.0758    0.0080 C   0  0
   -1.1815    1.7488    0.0171 N   0  0
   -2.5211    1.3381    0.0340 N   0  0
    2.4647    1.1039   -0.0245 C   0  0
    2.5359   -0.0863   -0.2468 O   0  0
    3.7076    1.9300    0.2383 C   0  0
    3.5584    3.2456   -0.5364 C   0  0  1  0  0  0
    2.3774    4.0356    0.0210 C   0  0
    4.8191    4.0586   -0.3925 C   0  0
    5.6185    4.4553   -1.3989 C   0  0
    6.6763    5.1906   -0.8163 C   0  0
    6.4644    5.1923    0.5120 C   0  0
    5.3380    4.5052    0.7629 O   0  0
   -9.0319    7.1668   -0.0092 H   0  0
   -9.2818    5.6021    0.8361 H   0  0
   -9.1451    5.6439   -0.9538 H   0  0
   -6.7819    6.4041   -0.7564 H   0  0
   -7.2705    6.0469    2.2540 H   0  0
   -7.0206    7.6116    1.4087 H   0  0
   -5.6901    6.4080    1.4818 H   0  0
   -7.3537    3.9441    0.9868 H   0  0
   -7.3700    3.9505   -0.8095 H   0  0
   -5.0009    4.7143   -0.8284 H   0  0
   -4.9835    4.7070    0.9678 H   0  0
    0.0023   -0.0241    0.0065 H   0  0
    4.5968    1.3891   -0.1177 H   0  0
    3.7930    2.1410    1.3145 H   0  0
    3.3822    3.0260   -1.5997 H   0  0
    2.2236    4.9366   -0.5910 H   0  0
    2.6031    4.3440    1.0525 H   0  0
    5.4765    4.2475   -2.4697 H   0  0
    7.5122    5.6694   -1.3474 H   0  0
    7.1050    5.6746    1.2650 H   0  0
  1  2  1  0
  2  3  1  0
  2  4  1  0
  4  5  1  0
  5  6  1  0
  6  7  1  0
  7 15  2  0
  7  8  1  0
  8  9  2  0
  9 14  1  0
  9 10  1  0
 10 11  2  0
 11 20  1  0
 11 12  1  0
 12 13  2  0
 12 16  1  0
 13 14  1  0
 14 15  1  0
 16 17  2  0
 16 18  1  0
 18 19  1  0
 19 20  1  0
 19 21  1  0
 21 25  1  0
 21 22  2  0
 22 23  1  0
 23 24  2  0
 24 25  1  0
  1 26  1  0
  1 27  1  0
  1 28  1  0
  2 29  1  0
  3 30  1  0
  3 31  1  0
  3 32  1  0
  4 33  1  0
  4 34  1  0
  5 35  1  0
  5 36  1  0
 13 37  1  0
 18 38  1  0
 18 39  1  0
 19 40  1  0
 20 41  1  0
 20 42  1  0
 22 43  1  0
 23 44  1  0
 24 45  1  0
M  END
> <Name>
ZINC13634263

> <reference>
BDB50272145

> <quality>
0.687

> <status>
decoy

$$$$
ZINC19333658
  SciTegic06061311253D

 56 60  0  0  1  0            999 V2000
   -7.6390    3.5343   -6.5698 C   0  0
   -6.9181    3.0089   -5.3268 C   0  0
   -5.8033    3.9808   -4.9348 C   0  0
   -5.0824    3.4554   -3.6917 C   0  0  1  0  0  0
   -3.9589    4.4011   -3.2342 C   0  0
   -3.3103    3.8462   -2.0390 N   0  0
   -4.2380    3.7570   -0.8993 C   0  0
   -5.3752    2.7797   -1.2425 C   0  0  1  0  0  0
   -6.0337    3.3127   -2.5095 C   0  0
   -7.2057    3.5975   -2.5710 O   0  0
   -4.7493    1.4237   -1.6050 C   0  0
   -3.8034    1.6054   -2.7138 N   0  0
   -4.4704    2.0674   -3.9381 C   0  0
   -2.7243    2.5288   -2.3301 C   0  0  2  0  0  0
   -2.0226    2.0051   -1.1036 C   0  0
   -1.5463    2.8622   -0.2005 C   0  0
   -0.8292    2.3851    1.0299 C   0  0  2  0  0  0
   -1.2853    0.9744    1.4470 C   0  0  2  0  0  0
   -1.4979    0.0830    0.2664 C   0  0
   -1.8532    0.5568   -0.9182 C   0  0
   -2.5411    1.2493    2.1069 O   0  0
   -2.3131    2.4864    2.8072 C   0  0
   -1.2568    3.1996    2.1463 O   0  0
   -6.3815    2.6464   -0.0977 C   0  0
   -6.9737    4.0202    0.2232 C   0  0
   -7.9800    3.8869    1.3680 C   0  0
   -6.9229    3.6237   -7.3999 H   0  0
   -8.0735    4.5214   -6.3532 H   0  0
   -8.4406    2.8360   -6.8522 H   0  0
   -7.6349    2.9201   -4.4971 H   0  0
   -6.4836    2.0218   -5.5433 H   0  0
   -5.0859    4.0698   -5.7639 H   0  0
   -6.2361    4.9683   -4.7168 H   0  0
   -4.3828    5.3878   -2.9960 H   0  0
   -3.2163    4.5051   -4.0390 H   0  0
   -3.6971    3.3931   -0.0133 H   0  0
   -4.6602    4.7509   -0.6897 H   0  0
   -4.2167    1.0199   -0.7313 H   0  0
   -5.5405    0.7228   -1.9096 H   0  0
   -3.7358    2.1287   -4.7546 H   0  0
   -5.2660    1.3588   -4.2117 H   0  0
   -1.9966    2.6157   -3.1504 H   0  0
   -1.6814    3.9422   -0.3599 H   0  0
    0.2470    2.4206    0.8051 H   0  0
   -0.5473    0.4484    2.0704 H   0  0
   -1.3547   -1.0012    0.3851 H   0  0
   -2.0209   -0.1309   -1.7602 H   0  0
   -3.2310    3.0924    2.7941 H   0  0
   -2.0204    2.2748    3.8462 H   0  0
   -7.1881    1.9607   -0.3963 H   0  0
   -5.8739    2.2494    0.7938 H   0  0
   -7.4827    4.4183   -0.6670 H   0  0
   -6.1676    4.7063    0.5223 H   0  0
   -7.4724    3.4900    2.2595 H   0  0
   -8.7869    3.2011    1.0704 H   0  0
   -8.4062    4.8743    1.5993 H   0  0
  1  2  1  0
  2  3  1  0
  3  4  1  0
  4  9  1  0
  4 13  1  0
  4  5  1  0
  5  6  1  0
  6 14  1  0
  6  7  1  0
  7  8  1  0
  8  9  1  0
  8 11  1  0
  8 24  1  0
  9 10  2  0
 11 12  1  0
 12 13  1  0
 12 14  1  0
 14 15  1  0
 15 20  1  0
 15 16  2  0
 16 17  1  0
 17 23  1  0
 17 18  1  0
 18 19  1  0
 18 21  1  0
 19 20  2  0
 21 22  1  0
 22 23  1  0
 24 25  1  0
 25 26  1  0
  1 27  1  0
  1 28  1  0
  1 29  1  0
  2 30  1  0
  2 31  1  0
  3 32  1  0
  3 33  1  0
  5 34  1  0
  5 35  1  0
  7 36  1  0
  7 37  1  0
 11 38  1  0
 11 39  1  0
 13 40  1  0
 13 41  1  0
 14 42  1  0
 16 43  1  0
 17 44  1  0
 18 45  1  0
 19 46  1  0
 20 47  1  0
 22 48  1  0
 22 49  1  0
 24 50  1  0
 24 51  1  0
 25 52  1  0
 25 53  1  0
 26 54  1  0
 26 55  1  0
 26 56  1  0
M  END
> <Name>
ZINC19333658

> <reference>
BDB50272145

> <quality>
0.685

> <status>
decoy

$$$$
ZINC28021930
  SciTegic06061311253D

 34 36  0  0  0  0            999 V2000
   -7.6221    0.4709    0.0363 C   0  0
   -8.8892   -0.0614    0.0410 C   0  0
  -10.0064    0.7765    0.0460 C   0  0
   -9.8196    2.1569    0.0591 C   0  0
   -8.5693    2.6968    0.0582 C   0  0
   -7.4454    1.8600    0.0484 C   0  0
   -6.0940    2.4349    0.0448 C   0  0
   -5.9470    3.6389    0.0502 O   0  0
   -4.8898    1.5288    0.0343 C   0  0
   -3.6800    2.3317    0.0325 O   0  0
   -2.5069    1.6700    0.0234 C   0  0
   -2.4948    0.4556    0.0171 O   0  0
   -1.2328    2.4226    0.0210 C   0  0
   -0.0215    1.7317    0.0116 C   0  0
    1.1651    2.4519    0.0041 C   0  0
    1.0985    3.8352    0.0117 C   0  0
   -0.1423    4.4569    0.0264 C   0  0
   -1.2522    3.7505    0.0332 N   0  0
   -0.2309    6.1906    0.0354 Cl  0  0
    0.0021   -0.0041    0.0020 Cl  0  0
  -11.1982    2.7897    0.0795 C   0  0
  -12.0927    1.5928    0.4798 C   0  0
  -11.3286    0.4600    0.0340 O   0  0
   -6.7463   -0.1946    0.0230 H   0  0
   -9.0240   -1.1531    0.0408 H   0  0
   -8.4418    3.7894    0.0652 H   0  0
   -4.9038    0.8897    0.9295 H   0  0
   -4.9118    0.8982   -0.8668 H   0  0
    2.1363    1.9356   -0.0076 H   0  0
    2.0203    4.4355    0.0061 H   0  0
  -11.2480    3.5768    0.8463 H   0  0
  -11.4706    3.1511   -0.9231 H   0  0
  -13.0536    1.6410   -0.0535 H   0  0
  -12.2207    1.5634    1.5719 H   0  0
  1  6  2  0
  1  2  1  0
  2  3  2  0
  3 23  1  0
  3  4  1  0
  4  5  2  0
  4 21  1  0
  5  6  1  0
  6  7  1  0
  7  8  2  0
  7  9  1  0
  9 10  1  0
 10 11  1  0
 11 12  2  0
 11 13  1  0
 13 18  2  0
 13 14  1  0
 14 15  2  0
 14 20  1  0
 15 16  1  0
 16 17  2  0
 17 18  1  0
 17 19  1  0
 21 22  1  0
 22 23  1  0
  1 24  1  0
  2 25  1  0
  5 26  1  0
  9 27  1  0
  9 28  1  0
 15 29  1  0
 16 30  1  0
 21 31  1  0
 21 32  1  0
 22 33  1  0
 22 34  1  0
M  END
> <Name>
ZINC28021930

> <reference>
BDB50272145

> <quality>
0.683

> <status>
decoy

$$$$
ZINC26102514
  SciTegic06061311253D

 39 41  0  0  0  0            999 V2000
    5.6321    8.7993    0.0056 C   0  0
    4.2063    9.1358    0.0148 N   0  0
    3.8076   10.4304    0.0200 C   0  0
    4.6240   11.3368    0.0177 O   0  0
    2.4413   10.6993    0.0344 C   0  0
    1.4872    9.6660    0.0377 C   0  0
    0.1479   10.0816    0.0519 C   0  0
   -0.1550   11.3973    0.0610 C   0  0
    1.4532   12.1720    0.0507 S   0  0
    1.9805    8.3919    0.0262 N   0  0
    3.2632    8.1479    0.0130 C   0  0
    3.8011    6.4701   -0.0005 S   0  0
    2.1998    5.6265    0.0103 C   0  0
    2.4208    4.1126    0.0006 C   0  0
    1.1565    3.4465    0.0091 O   0  0
    1.1749    2.0869    0.0020 C   0  0
   -0.0167    1.3771    0.0096 C   0  0
    0.0021   -0.0041    0.0020 C   0  0
    1.2125   -0.6811   -0.0132 C   0  0
    2.4041    0.0286   -0.0202 C   0  0
    2.3853    1.4098   -0.0126 C   0  0
    1.2309   -2.0408   -0.0206 O   0  0
    2.5128   -2.6722   -0.0362 C   0  0
    5.7676    8.1668   -0.8841 H   0  0
    5.7763    8.1552    0.8856 H   0  0
    6.3005    9.6729    0.0080 H   0  0
   -0.6584    9.3333    0.0556 H   0  0
   -1.1465   11.8736    0.0720 H   0  0
    1.6423    5.9094    0.9154 H   0  0
    1.6245    5.9181   -0.8808 H   0  0
    2.9780    3.8291   -0.9045 H   0  0
    2.9951    3.8191    0.8917 H   0  0
   -0.9767    1.9140    0.0217 H   0  0
   -0.9429   -0.5671    0.0080 H   0  0
    3.3641   -0.5084   -0.0318 H   0  0
    3.3303    1.9727   -0.0181 H   0  0
    3.0501   -2.3031    0.8498 H   0  0
    3.0332   -2.2936   -0.9283 H   0  0
    2.4463   -3.7702   -0.0414 H   0  0
  1  2  1  0
  2 11  1  0
  2  3  1  0
  3  4  2  0
  3  5  1  0
  5  9  1  0
  5  6  2  0
  6  7  1  0
  6 10  1  0
  7  8  2  0
  8  9  1  0
 10 11  2  0
 11 12  1  0
 12 13  1  0
 13 14  1  0
 14 15  1  0
 15 16  1  0
 16 21  2  0
 16 17  1  0
 17 18  2  0
 18 19  1  0
 19 20  2  0
 19 22  1  0
 20 21  1  0
 22 23  1  0
  1 24  1  0
  1 25  1  0
  1 26  1  0
  7 27  1  0
  8 28  1  0
 13 29  1  0
 13 30  1  0
 14 31  1  0
 14 32  1  0
 17 33  1  0
 18 34  1  0
 20 35  1  0
 21 36  1  0
 23 37  1  0
 23 38  1  0
 23 39  1  0
M  END
> <Name>
ZINC26102514

> <reference>
BDB50272145

> <quality>
0.683

> <status>
decoy

$$$$
ZINC05393962
  SciTegic06061311253D

 42 45  0  0  0  0            999 V2000
   -1.1256    3.3734   -0.6154 C   0  0
   -1.1967    1.9714   -0.3481 O   0  0
   -0.0204    1.2969   -0.2779 C   0  0
    1.1779    1.9662   -0.4676 C   0  0
    2.3741    1.2778   -0.4017 C   0  0
    2.3860   -0.0832   -0.1461 C   0  0
    1.2032   -0.7651    0.0451 C   0  0
   -0.0133   -0.0809   -0.0190 C   0  0
   -1.2811   -0.8031    0.1839 C   0  0
   -2.4096   -0.1635    0.1231 N   0  0
   -3.6153   -0.8504    0.3160 N   0  0
   -4.8769   -0.3351    0.2856 C   0  0
   -5.7037   -1.3324    0.5165 N   0  0
   -5.0536   -2.4262    0.6878 N   0  0
   -3.7861   -2.2214    0.5768 N   0  0
   -5.2225    0.9860    0.0561 N   0  0
   -6.5651    1.3495   -0.0350 C   0  0
   -7.5492    0.3834   -0.0330 C   0  0
   -8.8924    0.7362   -0.1176 C   0  0
   -9.2721    2.0403   -0.2159 C   0  0
   -8.3004    3.0552   -0.2273 C   0  0
   -6.9296    2.7093   -0.1360 C   0  0
   -5.9602    3.7242   -0.1481 C   0  0
   -6.3480    5.0257   -0.2471 C   0  0
   -7.6959    5.3671   -0.3374 C   0  0
   -8.6631    4.4096   -0.3287 C   0  0
   -0.5847    3.4798   -1.5673 H   0  0
   -0.5005    3.8083    0.1784 H   0  0
   -2.1165    3.8493   -0.6572 H   0  0
    1.1769    3.0472   -0.6710 H   0  0
    3.3226    1.8140   -0.5532 H   0  0
    3.3434   -0.6225   -0.0954 H   0  0
    1.2172   -1.8462    0.2478 H   0  0
   -1.2719   -1.8842    0.3869 H   0  0
   -4.4875    1.7001   -0.0473 H   0  0
   -7.2691   -0.6781    0.0363 H   0  0
   -9.6603   -0.0513   -0.1049 H   0  0
  -10.3389    2.2990   -0.2863 H   0  0
   -4.8924    3.4695   -0.0780 H   0  0
   -5.5861    5.8191   -0.2559 H   0  0
   -7.9825    6.4261   -0.4169 H   0  0
   -9.7232    4.6941   -0.4006 H   0  0
  1  2  1  0
  2  3  1  0
  3  8  2  0
  3  4  1  0
  4  5  2  0
  5  6  1  0
  6  7  2  0
  7  8  1  0
  8  9  1  0
  9 10  2  0
 10 11  1  0
 11 15  1  0
 11 12  1  0
 12 13  2  0
 12 16  1  0
 13 14  1  0
 14 15  2  0
 16 17  1  0
 17 22  2  0
 17 18  1  0
 18 19  2  0
 19 20  1  0
 20 21  2  0
 21 26  1  0
 21 22  1  0
 22 23  1  0
 23 24  2  0
 24 25  1  0
 25 26  2  0
  1 27  1  0
  1 28  1  0
  1 29  1  0
  4 30  1  0
  5 31  1  0
  6 32  1  0
  7 33  1  0
  9 34  1  0
 16 35  1  0
 18 36  1  0
 19 37  1  0
 20 38  1  0
 23 39  1  0
 24 40  1  0
 25 41  1  0
 26 42  1  0
M  END
> <Name>
ZINC05393962

> <reference>
BDB50272145

> <quality>
0.682

> <status>
decoy

$$$$
ZINC16043505
  SciTegic06061311253D

 46 48  0  0  0  0            999 V2000
    1.5230   -0.3377   -1.1008 C   0  0
    1.0394    0.3015    0.2024 C   0  0  1  0  0  0
    2.1476    1.1850    0.7790 C   0  0
   -0.1995    1.1547   -0.0770 C   0  0
   -0.7249    1.6809    1.1852 N   0  0
   -0.4589    2.9222    1.7373 C   0  0
    0.3155    4.0302    1.3414 C   0  0
    0.9453    4.0003    0.2987 O   0  0
    0.3562    5.1230    2.1314 N   0  0
   -0.3329    5.1702    3.2844 C   0  0
   -0.2716    6.1721    3.9708 O   0  0
   -1.0889    4.1363    3.6988 N   0  0
   -1.1721    2.9845    2.9313 C   0  0
   -1.8195    1.8301    3.0764 N   0  0
   -1.5666    1.0399    2.0474 C   0  0
   -2.1055   -0.3134    1.8616 C   0  0
   -2.7085   -1.1473    2.7878 C   0  0
   -3.1310   -2.3774    2.3408 C   0  0
   -2.9307   -2.7145    1.0417 C   0  0
   -2.1467   -1.3145    0.3855 S   0  0
   -1.8243    4.2280    4.9626 C   0  0
   -0.9450    3.7112    6.1030 C   0  0  1  0  0  0
   -1.6639    3.9219    7.4370 C   0  0
   -0.6722    2.2194    5.9008 C   0  0
    2.4136   -0.9516   -0.9009 H   0  0
    1.7766    0.4505   -1.8250 H   0  0
    0.7267   -0.9730   -1.5159 H   0  0
    0.7857   -0.4875    0.9257 H   0  0
    2.4018    1.9745    0.0565 H   0  0
    3.0388    0.5725    0.9805 H   0  0
    1.8006    1.6449    1.7160 H   0  0
    0.0726    1.9912   -0.7374 H   0  0
   -0.9686    0.5377   -0.5646 H   0  0
    0.9241    5.9337    1.8466 H   0  0
   -2.8437   -0.8395    3.8352 H   0  0
   -3.6254   -3.0796    3.0282 H   0  0
   -3.2005   -3.6496    0.5291 H   0  0
   -2.7387    3.6196    4.9010 H   0  0
   -2.0940    5.2770    5.1548 H   0  0
    0.0079    4.2607    6.1092 H   0  0
   -2.6169    3.3725    7.4319 H   0  0
   -1.8603    4.9943    7.5835 H   0  0
   -1.0322    3.5505    8.2574 H   0  0
   -0.1551    2.0668    4.9420 H   0  0
   -1.6245    1.6689    5.8947 H   0  0
   -0.0400    1.8472    6.7204 H   0  0
  1  2  1  0
  2  3  1  0
  2  4  1  0
  4  5  1  0
  5 15  1  0
  5  6  1  0
  6 13  2  0
  6  7  1  0
  7  8  2  0
  7  9  1  0
  9 10  1  0
 10 11  2  0
 10 12  1  0
 12 13  1  0
 12 21  1  0
 13 14  1  0
 14 15  2  0
 15 16  1  0
 16 20  1  0
 16 17  2  0
 17 18  1  0
 18 19  2  0
 19 20  1  0
 21 22  1  0
 22 23  1  0
 22 24  1  0
  1 25  1  0
  1 26  1  0
  1 27  1  0
  2 28  1  0
  3 29  1  0
  3 30  1  0
  3 31  1  0
  4 32  1  0
  4 33  1  0
  9 34  1  0
 17 35  1  0
 18 36  1  0
 19 37  1  0
 21 38  1  0
 21 39  1  0
 22 40  1  0
 23 41  1  0
 23 42  1  0
 23 43  1  0
 24 44  1  0
 24 45  1  0
 24 46  1  0
M  END
> <Name>
ZINC16043505

> <reference>
BDB50272145

> <quality>
0.677

> <status>
decoy

$$$$
ZINC06803640
  SciTegic06061311253D

 47 49  0  0  1  0            999 V2000
   -1.1997    6.3300   -2.4880 C   0  0
   -1.2390    5.6907   -1.0985 C   0  0
   -1.2177    4.1671   -1.2374 C   0  0
   -1.2569    3.5278    0.1521 C   0  0
   -1.2365    2.0690    0.0191 N   0  0
   -0.0163    1.3858   -0.0040 C   0  0
    0.7788    1.3426    1.1339 C   0  0
    1.9856    0.6716    1.1061 C   0  0
    2.4029    0.0437   -0.0531 C   0  0
    1.6138    0.0853   -1.1880 C   0  0
    0.4057    0.7541   -1.1667 C   0  0
    2.0724   -0.6004   -2.4491 C   0  0
    2.8488    0.6238    2.3405 C   0  0
   -2.4190    1.3702   -0.0830 C   0  0
   -2.5655    0.0833   -0.1033 N   0  0
   -3.8681   -0.5409   -0.2385 C   0  0  2  0  0  0
   -3.8500   -1.4828   -1.4658 C   0  0
   -5.5757   -1.3323   -2.0907 S   0  0
   -6.4453   -2.1709   -1.3425 O   0  0
   -5.5598   -1.4191   -3.5090 O   0  0
   -5.8389    0.4247   -1.5886 C   0  0
   -5.0087    0.4861   -0.2925 C   0  0  2  0  0  0
   -4.0612    2.0515   -0.2065 S   0  0
   -2.0753    6.0032   -3.0681 H   0  0
   -0.2805    6.0228   -3.0083 H   0  0
   -1.2150    7.4254   -2.3889 H   0  0
   -0.3629    6.0178   -0.5193 H   0  0
   -2.1582    5.9979   -0.5782 H   0  0
   -2.0938    3.8392   -1.8161 H   0  0
   -0.2986    3.8579   -1.7566 H   0  0
   -2.1760    3.8350    0.6725 H   0  0
   -0.3808    3.8550    0.7312 H   0  0
    0.4477    1.8423    2.0563 H   0  0
    3.3646   -0.4900   -0.0725 H   0  0
   -0.2217    0.7865   -2.0697 H   0  0
    2.2415   -1.6481   -2.1598 H   0  0
    3.0562   -0.1616   -2.6718 H   0  0
    1.3687   -0.5040   -3.2890 H   0  0
    2.2074    0.1897    3.1216 H   0  0
    3.0221    1.6762    2.6095 H   0  0
    3.7861    0.0639    2.2064 H   0  0
   -4.0722   -1.1405    0.6608 H   0  0
   -3.1438   -1.1165   -2.2255 H   0  0
   -3.6533   -2.5201   -1.1570 H   0  0
   -6.9042    0.6003   -1.3780 H   0  0
   -5.4223    1.0993   -2.3511 H   0  0
   -5.7589    0.3342    0.4975 H   0  0
  1  2  1  0
  2  3  1  0
  3  4  1  0
  4  5  1  0
  5  6  1  0
  5 14  1  0
  6 11  2  0
  6  7  1  0
  7  8  2  0
  8  9  1  0
  8 13  1  0
  9 10  2  0
 10 11  1  0
 10 12  1  0
 14 23  1  0
 14 15  2  0
 15 16  1  0
 16 22  1  0
 16 17  1  0
 17 18  1  0
 18 19  2  0
 18 20  2  0
 18 21  1  0
 21 22  1  0
 22 23  1  0
  1 24  1  0
  1 25  1  0
  1 26  1  0
  2 27  1  0
  2 28  1  0
  3 29  1  0
  3 30  1  0
  4 31  1  0
  4 32  1  0
  7 33  1  0
  9 34  1  0
 11 35  1  0
 12 36  1  0
 12 37  1  0
 12 38  1  0
 13 39  1  0
 13 40  1  0
 13 41  1  0
 16 42  1  0
 17 43  1  0
 17 44  1  0
 21 45  1  0
 21 46  1  0
 22 47  1  0
M  END
> <Name>
ZINC06803640

> <reference>
BDB50272145

> <quality>
0.676

> <status>
decoy

$$$$
ZINC05117138
  SciTegic06061311253D

 38 39  0  0  0  0            999 V2000
    6.5141    0.3866    5.5349 C   0  0
    5.7836    0.8043    4.4429 C   0  0
    6.3780    1.6237    3.4804 C   0  0
    7.7136    2.0102    3.6286 C   0  0
    8.4318    1.5894    4.7297 C   0  0
    7.8356    0.7769    5.6793 C   0  0
    8.7478    0.2454    7.0574 Cl  0  0
    8.4644    3.0219    2.4344 Cl  0  0
    5.6015    2.0745    2.3091 C   0  0
    6.1211    2.7871    1.4735 O   0  0
    4.3164    1.6958    2.1665 O   0  0
    3.6141    2.1768    0.9901 C   0  0
    2.2003    1.6552    1.0008 C   0  0
    1.8219    0.9477    1.9103 O   0  0
    1.3565    1.9749   -0.0003 N   0  5
   -0.0179    1.4678    0.0101 C   0  0  1  0  0  0
   -0.7340    1.9612    1.2689 C   0  0
   -2.1694    1.4316    1.2798 C   0  0
   -2.9094    1.9384    0.0402 C   0  0
   -2.1933    1.4450   -1.2186 C   0  0
   -0.7579    1.9746   -1.2294 C   0  0
    0.0021   -0.0041    0.0020 C   0  0
    0.0175   -1.1399   -0.0042 N   0  0
    6.0465   -0.2583    6.2936 H   0  0
    4.7347    0.4929    4.3298 H   0  0
    9.4798    1.9001    4.8530 H   0  0
    4.1280    1.8224    0.0844 H   0  0
    3.5986    3.2767    0.9963 H   0  0
   -0.2024    1.5964    2.1601 H   0  0
   -0.7497    3.0611    1.2759 H   0  0
   -2.6853    1.7860    2.1843 H   0  0
   -2.1546    0.3317    1.2732 H   0  0
   -3.9412    1.5573    0.0476 H   0  0
   -2.9247    3.0383    0.0451 H   0  0
   -2.7244    1.8091   -2.1104 H   0  0
   -2.1778    0.3451   -1.2245 H   0  0
   -0.2439    1.6202   -2.1351 H   0  0
   -0.7734    3.0745   -1.2232 H   0  0
  1  6  2  0
  1  2  1  0
  2  3  2  0
  3  4  1  0
  3  9  1  0
  4  5  2  0
  4  8  1  0
  5  6  1  0
  6  7  1  0
  9 10  2  0
  9 11  1  0
 11 12  1  0
 12 13  1  0
 13 14  2  0
 13 15  1  0
 15 16  1  0
 16 21  1  0
 16 17  1  0
 16 22  1  0
 17 18  1  0
 18 19  1  0
 19 20  1  0
 20 21  1  0
 22 23  3  0
  1 24  1  0
  2 25  1  0
  5 26  1  0
 12 27  1  0
 12 28  1  0
 17 29  1  0
 17 30  1  0
 18 31  1  0
 18 32  1  0
 19 33  1  0
 19 34  1  0
 20 35  1  0
 20 36  1  0
 21 37  1  0
 21 38  1  0
M  CHG  1  15  -1
M  END
> <Name>
ZINC05117138

> <reference>
BDB50272199

> <quality>
0.793

> <status>
decoy

$$$$
ZINC31314987
  SciTegic06061311253D

 31 32  0  0  0  0            999 V2000
   -2.7579    2.9684   -2.5418 C   0  0
   -1.9984    2.4454   -3.6802 N   0  0
   -2.2934    2.6471   -4.9816 C   0  0
   -1.3716    2.0134   -5.7459 C   0  0
   -0.4578    1.3931   -4.8888 C   0  0
   -0.8653    1.6672   -3.5992 C   0  0
   -0.2089    1.2178   -2.3690 C   0  0
    0.7922    0.5300   -2.4304 O   0  0
   -0.7150    1.5668   -1.1683 O   0  0
   -0.0127    1.0858    0.0080 C   0  0
   -0.7181    1.5718    1.2479 C   0  0
   -0.3591    2.7804    1.8191 C   0  0
   -1.0106    3.2304    2.9566 C   0  0
   -2.0141    2.4648    3.5284 C   0  0
   -2.3693    1.2524    2.9590 C   0  0
   -1.7206    0.8067    1.8181 C   0  0
   -2.0668   -0.3753    1.2628 F   0  0
   -3.3478    0.5054    3.5154 F   0  0
   -2.6461    2.9003    4.6402 F   0  0
   -0.6635    4.4125    3.5110 F   0  0
    0.6231    3.5241    1.2646 F   0  0
   -1.3351    1.9873   -7.2254 N   0  0
   -2.1891    2.5735   -7.8660 O   0  0
   -0.4510    1.3796   -7.8021 O   0  0
   -1.9897    3.5060   -1.9667 H   0  0
   -2.9834    2.0593   -1.9650 H   0  0
   -3.6433    3.5763   -2.7795 H   0  0
   -3.1447    3.2316   -5.3605 H   0  0
    0.4193    0.7994   -5.1859 H   0  0
    1.0194    1.4662    0.0013 H   0  0
    0.0018   -0.0141    0.0024 H   0  0
  1  2  1  0
  2  6  1  0
  2  3  1  0
  3  4  2  0
  4  5  1  0
  4 22  1  0
  5  6  2  0
  6  7  1  0
  7  8  2  0
  7  9  1  0
  9 10  1  0
 10 11  1  0
 11 16  2  0
 11 12  1  0
 12 13  2  0
 12 21  1  0
 13 14  1  0
 13 20  1  0
 14 15  2  0
 14 19  1  0
 15 16  1  0
 15 18  1  0
 16 17  1  0
 22 23  2  0
 22 24  2  0
  1 25  1  0
  1 26  1  0
  1 27  1  0
  3 28  1  0
  5 29  1  0
 10 30  1  0
 10 31  1  0
M  END
> <Name>
ZINC31314987

> <reference>
BDB50272199

> <quality>
0.760

> <status>
decoy

$$$$
ZINC30024078
  SciTegic06061311253D

 39 41  0  0  0  0            999 V2000
    4.4272   -3.7031    5.8909 C   0  0
    4.8691   -2.2572    5.6560 C   0  0
    3.7630   -1.4993    4.9682 C   0  0
    2.7577   -0.8084    5.5256 C   0  0
    1.7904   -0.1461    4.6675 C   0  0
    2.0160   -0.3033    3.2868 C   0  0
    3.4780   -1.3067    3.2189 S   0  0
    1.2191    0.2425    2.3764 N   0  0
    0.1742    0.9607    2.7352 C   0  0
   -0.1146    1.1675    4.0530 N   0  0
    0.6492    0.6382    5.0264 C   0  0
    0.3750    0.8289    6.1988 O   0  0
   -1.2811    1.9765    4.4148 C   0  0
   -2.4895    1.0855    4.5450 C   0  0
   -3.1889    1.0881    5.6527 C   0  0
   -0.8599    1.6695    1.4972 S   0  0
   -0.0127    1.0858    0.0080 C   0  0
   -0.7416    1.5850   -1.2129 C   0  0
   -1.7367    0.9526   -1.8599 N   0  0
   -2.0710    1.7427   -2.8517 C   0  0
   -1.2734    2.8127   -2.7817 O   0  0
   -0.5202    2.7030   -1.8372 N   0  0
   -3.1453    1.4897   -3.8778 C   0  0
    4.2020   -4.1802    4.9257 H   0  0
    3.5275   -3.7144    6.5236 H   0  0
    5.2342   -4.2569    6.3930 H   0  0
    5.0938   -1.7808    6.6217 H   0  0
    5.7689   -2.2458    5.0233 H   0  0
    2.6666   -0.7439    6.6199 H   0  0
   -1.4637    2.7288    3.6333 H   0  0
   -1.0938    2.4819    5.3737 H   0  0
   -2.7843    0.4330    3.7099 H   0  0
   -2.8942    1.7406    6.4878 H   0  0
   -4.0709    0.4377    5.7477 H   0  0
    0.0026   -0.0141    0.0009 H   0  0
    1.0191    1.4670   -0.0002 H   0  0
   -4.0335    1.3091   -3.2545 H   0  0
   -2.8588    0.5098   -4.2873 H   0  0
   -3.2843    2.2704   -4.6401 H   0  0
  1  2  1  0
  2  3  1  0
  3  7  1  0
  3  4  2  0
  4  5  1  0
  5 11  1  0
  5  6  2  0
  6  7  1  0
  6  8  1  0
  8  9  2  0
  9 10  1  0
  9 16  1  0
 10 11  1  0
 10 13  1  0
 11 12  2  0
 13 14  1  0
 14 15  2  0
 16 17  1  0
 17 18  1  0
 18 22  2  0
 18 19  1  0
 19 20  2  0
 20 21  1  0
 20 23  1  0
 21 22  1  0
  1 24  1  0
  1 25  1  0
  1 26  1  0
  2 27  1  0
  2 28  1  0
  4 29  1  0
 13 30  1  0
 13 31  1  0
 14 32  1  0
 15 33  1  0
 15 34  1  0
 17 35  1  0
 17 36  1  0
 23 37  1  0
 23 38  1  0
 23 39  1  0
M  END
> <Name>
ZINC30024078

> <reference>
BDB50272199

> <quality>
0.759

> <status>
decoy

$$$$
ZINC02885054
  SciTegic06061311253D

 53 54  0  0  1  0            999 V2000
    3.2583    3.4693    4.6065 C   0  0
    1.8772    3.6578    5.2373 C   0  0
    1.0022    2.6221    4.7862 O   0  0
   -0.2728    2.6434    5.2561 C   0  0
   -0.6748    3.6434    6.1301 C   0  0
   -1.9698    3.6601    6.6100 C   0  0
   -2.8667    2.6835    6.2172 C   0  0
   -2.4699    1.6886    5.3431 C   0  0
   -1.1758    1.6680    4.8595 C   0  0
   -0.6709    0.3996    3.7456 S   0  0
   -1.8095   -0.4204    3.5208 O   0  0
    0.5535   -0.1180    4.2476 O   0  0
   -0.3197    1.1282    2.3006 N   0  0
   -1.3561    1.3088    1.2717 C   0  0
   -0.8140    0.7758   -0.0594 C   0  0  2  0  0  0
    0.4558    1.3767   -0.3250 O   0  0
    1.4633    1.0668    0.6407 C   0  0  1  0  0  0
    1.0378    1.6147    2.0077 C   0  0
    1.6372   -0.4508    0.7289 C   0  0
   -1.7894    1.1235   -1.1857 C   0  0
   -4.2788    2.7036    6.7431 C   0  0  1  0  0  0
   -5.2486    2.9704    5.5903 C   0  0
   -4.6046    1.3517    7.3812 C   0  0
   -2.4057    4.7431    7.5629 C   0  0
    3.1715    3.5150    3.5109 H   0  0
    3.6666    2.4912    4.9009 H   0  0
    3.9324    4.2663    4.9534 H   0  0
    1.9649    3.6117    6.3328 H   0  0
    1.4688    4.6359    4.9430 H   0  0
    0.0373    4.4222    6.4405 H   0  0
   -3.1851    0.9127    5.0324 H   0  0
   -2.2588    0.7469    1.5535 H   0  0
   -1.5956    2.3776    1.1704 H   0  0
   -0.7009   -0.3168   -0.0006 H   0  0
    2.4169    1.5253    0.3400 H   0  0
    1.7343    1.2578    2.7807 H   0  0
    1.0386    2.7144    1.9805 H   0  0
    1.9385   -0.8437   -0.2534 H   0  0
    0.6858   -0.9126    1.0315 H   0  0
    2.4124   -0.6895    1.4719 H   0  0
   -1.9037    2.2158   -1.2481 H   0  0
   -2.7675    0.6647   -0.9788 H   0  0
   -1.4002    0.7410   -2.1408 H   0  0
   -4.3780    3.4984    7.4971 H   0  0
   -5.1504    2.1760    4.8358 H   0  0
   -5.0153    3.9423    5.1310 H   0  0
   -6.2796    2.9852    5.9735 H   0  0
   -3.9080    1.1590    8.2104 H   0  0
   -4.5059    0.5562    6.6279 H   0  0
   -5.6353    1.3657    7.7653 H   0  0
   -2.1987    5.6870    7.0373 H   0  0
   -1.7038    4.6804    8.4076 H   0  0
   -3.4555    4.6598    7.8808 H   0  0
  1  2  1  0
  2  3  1  0
  3  4  1  0
  4  9  2  0
  4  5  1  0
  5  6  2  0
  6  7  1  0
  6 24  1  0
  7  8  2  0
  7 21  1  0
  8  9  1  0
  9 10  1  0
 10 11  2  0
 10 12  2  0
 10 13  1  0
 13 18  1  0
 13 14  1  0
 14 15  1  0
 15 16  1  0
 15 20  1  0
 16 17  1  0
 17 18  1  0
 17 19  1  0
 21 22  1  0
 21 23  1  0
  1 25  1  0
  1 26  1  0
  1 27  1  0
  2 28  1  0
  2 29  1  0
  5 30  1  0
  8 31  1  0
 14 32  1  0
 14 33  1  0
 15 34  1  0
 17 35  1  0
 18 36  1  0
 18 37  1  0
 19 38  1  0
 19 39  1  0
 19 40  1  0
 20 41  1  0
 20 42  1  0
 20 43  1  0
 21 44  1  0
 22 45  1  0
 22 46  1  0
 22 47  1  0
 23 48  1  0
 23 49  1  0
 23 50  1  0
 24 51  1  0
 24 52  1  0
 24 53  1  0
M  END
> <Name>
ZINC02885054

> <reference>
BDB50272199

> <quality>
0.746

> <status>
decoy

$$$$
ZINC28629466
  SciTegic06061311253D

 46 48  0  0  0  0            999 V2000
   -0.7288    1.5792    1.2668 C   0  0
   -0.0127    1.0858    0.0080 C   0  0
   -0.7416    1.5850   -1.2129 C   0  0
   -1.6697    0.7899   -1.8229 C   0  0
   -2.3437    1.2542   -2.9529 C   0  0
   -2.0728    2.5350   -3.4664 C   0  0
   -1.1261    3.3301   -2.8344 C   0  0
   -0.4697    2.8575   -1.7105 C   0  0
    0.4514    3.6391   -1.0913 O   0  0
    0.6850    4.9334   -1.6501 C   0  0
   -2.7255    2.9820   -4.5573 O   0  0
   -3.6459    2.2632   -5.2067 C   0  0
   -4.0034    1.0131   -4.8191 C   0  0
   -3.3518    0.4247   -3.6371 C   0  0
   -3.6330   -0.6941   -3.2429 O   0  0
   -5.0323    0.2522   -5.5732 C   0  0
   -4.8062   -0.6165   -6.6636 C   0  0
   -6.0271   -1.0943   -7.0423 C   0  0
   -6.9627   -0.5545   -6.2341 O   0  0
   -6.3751    0.2535   -5.3423 C   0  0
   -7.0813    1.0358   -4.2652 C   0  0
   -6.2786   -2.0328   -8.1388 C   0  0
   -5.3512   -2.4548   -8.8029 O   0  0
   -7.5389   -2.4289   -8.4119 O   0  0
   -7.7133   -3.3601   -9.5122 C   0  0
   -4.3126    2.8643   -6.4171 C   0  0
   -1.7609    1.1987    1.2757 H   0  0
   -0.7440    2.6791    1.2739 H   0  0
   -0.1972    1.2152    2.1584 H   0  0
    0.0026   -0.0141    0.0008 H   0  0
    1.0191    1.4670   -0.0002 H   0  0
   -1.8849   -0.2127   -1.4248 H   0  0
   -0.8982    4.3327   -3.2254 H   0  0
   -0.2874    5.4477   -1.6563 H   0  0
    0.9866    4.7693   -2.6951 H   0  0
    1.4426    5.5060   -1.0950 H   0  0
   -3.8350   -0.8605   -7.1190 H   0  0
   -6.7484    2.0666   -4.4569 H   0  0
   -6.5597    0.7150   -3.3514 H   0  0
   -8.1743    0.9213   -4.2186 H   0  0
   -7.0968   -4.2396   -9.2745 H   0  0
   -7.2818   -2.8749  -10.4001 H   0  0
   -8.7664   -3.6347   -9.6721 H   0  0
   -3.4971    3.1212   -7.1092 H   0  0
   -4.7642    3.8059   -6.0713 H   0  0
   -5.0532    2.1956   -6.8801 H   0  0
  1  2  1  0
  2  3  1  0
  3  8  2  0
  3  4  1  0
  4  5  2  0
  5 14  1  0
  5  6  1  0
  6  7  2  0
  6 11  1  0
  7  8  1  0
  8  9  1  0
  9 10  1  0
 11 12  1  0
 12 13  2  0
 12 26  1  0
 13 14  1  0
 13 16  1  0
 14 15  2  0
 16 20  2  0
 16 17  1  0
 17 18  2  0
 18 19  1  0
 18 22  1  0
 19 20  1  0
 20 21  1  0
 22 23  2  0
 22 24  1  0
 24 25  1  0
  1 27  1  0
  1 28  1  0
  1 29  1  0
  2 30  1  0
  2 31  1  0
  4 32  1  0
  7 33  1  0
 10 34  1  0
 10 35  1  0
 10 36  1  0
 17 37  1  0
 21 38  1  0
 21 39  1  0
 21 40  1  0
 25 41  1  0
 25 42  1  0
 25 43  1  0
 26 44  1  0
 26 45  1  0
 26 46  1  0
M  END
> <Name>
ZINC28629466

> <reference>
BDB50272199

> <quality>
0.743

> <status>
decoy

$$$$
ZINC05243875
  SciTegic06061311253D

 38 40  0  0  0  0            999 V2000
   -6.6970    8.2111    7.8834 C   0  0
   -6.4972    7.4958    6.5721 C   0  0
   -5.2167    7.2983    6.0840 C   0  0
   -5.0248    6.6452    4.8857 C   0  0
   -6.1300    6.1806    4.1611 C   0  0
   -7.4222    6.3894    4.6600 C   0  0
   -7.5953    7.0404    5.8624 C   0  0
   -5.9356    5.4847    2.8844 C   0  0
   -4.8366    4.6766    2.7015 C   0  0
   -3.9715    4.3839    3.8045 C   0  0
   -3.2853    4.1517    4.6796 N   0  0
   -4.5506    4.1135    1.3730 C   0  0
   -5.2849    4.3619    0.4368 O   0  0
   -3.4742    3.3220    1.1939 O   0  0
   -3.2538    2.8016   -0.1436 C   0  0
   -2.0142    1.9448   -0.1514 C   0  0
   -2.0977    0.5924   -0.4063 C   0  0
   -0.9390   -0.1845   -0.4093 C   0  0
   -1.0071   -1.3827   -0.6340 O   0  0
    0.2722    0.3969   -0.1599 N   0  0
    1.4942   -0.2309   -0.1279 C   0  0
    2.6109    0.4498    0.1287 C   0  0
    1.9853    2.1074    0.3537 S   0  0
    0.2640    1.7445    0.0833 C   0  0
   -0.8203    2.4791    0.0921 N   0  0
   -7.2713    7.5110    8.5080 H   0  0
   -7.3589    9.0583    7.6506 H   0  0
   -5.7594    8.5296    8.3625 H   0  0
   -4.3500    7.6637    6.6543 H   0  0
   -4.0068    6.4892    4.4994 H   0  0
   -8.2961    6.0349    4.0938 H   0  0
   -8.6089    7.1986    6.2594 H   0  0
   -6.6682    5.6087    2.0733 H   0  0
   -4.1196    2.1956   -0.4487 H   0  0
   -3.1252    3.6375   -0.8469 H   0  0
   -3.0744    0.1277   -0.6066 H   0  0
    1.5516   -1.3130   -0.3172 H   0  0
    3.6473    0.0857    0.1867 H   0  0
  1  2  1  0
  2  7  2  0
  2  3  1  0
  3  4  2  0
  4  5  1  0
  5  6  2  0
  5  8  1  0
  6  7  1  0
  8  9  2  0
  9 10  1  0
  9 12  1  0
 10 11  3  0
 12 13  2  0
 12 14  1  0
 14 15  1  0
 15 16  1  0
 16 25  1  0
 16 17  2  0
 17 18  1  0
 18 19  2  0
 18 20  1  0
 20 24  1  0
 20 21  1  0
 21 22  2  0
 22 23  1  0
 23 24  1  0
 24 25  2  0
  1 26  1  0
  1 27  1  0
  1 28  1  0
  3 29  1  0
  4 30  1  0
  6 31  1  0
  7 32  1  0
  8 33  1  0
 15 34  1  0
 15 35  1  0
 17 36  1  0
 21 37  1  0
 22 38  1  0
M  END
> <Name>
ZINC05243875

> <reference>
BDB50272199

> <quality>
0.743

> <status>
decoy

$$$$
ZINC26654435
  SciTegic06061311253D

 54 57  0  0  1  0            999 V2000
   -3.9517    6.5928    6.9010 C   0  0
   -3.8707    5.0882    6.9256 C   0  0
   -4.9649    4.3310    6.5511 C   0  0
   -4.8908    2.9508    6.5742 C   0  0
   -3.7225    2.3279    6.9717 C   0  0
   -2.6301    3.0851    7.3512 C   0  0
   -2.7025    4.4653    7.3232 C   0  0
   -3.6419    0.8232    6.9972 C   0  0
   -3.0386    0.3439    5.7465 N   0  0
   -3.9956    0.4259    4.6351 C   0  0
   -3.2659    0.5300    3.3690 N   0  0
   -2.8947    1.6963    2.8014 C   0  0
   -3.0935    2.8147    3.2250 O   0  0
   -2.1785    1.3147    1.5265 C   0  0  1  0  0  0
   -2.9083    1.8839    0.3147 C   0  0
   -2.1856    1.4559   -0.9652 C   0  0
   -0.7438    1.9666   -0.9304 C   0  0
   -0.0183    1.3709    0.2779 C   0  0
   -0.7328    1.7987    1.5625 C   0  0  2  0  0  0
   -0.0199    1.1870    2.7702 C   0  0
   -2.2290   -0.1529    1.5144 N   0  5
   -2.8844   -0.5204    2.6321 C   0  0
   -3.1046   -1.6760    2.9374 O   0  0
   -2.5258   -1.0241    5.8998 C   0  0  2  0  0  0
   -2.9333   -1.7945    7.1574 C   0  0
   -1.5020   -1.2747    7.0089 C   0  0
   -3.1264    6.9128    6.2479 H   0  0
   -3.6986    6.9094    7.9236 H   0  0
   -4.9260    6.9808    6.5691 H   0  0
   -5.8945    4.8267    6.2347 H   0  0
   -5.7615    2.3482    6.2763 H   0  0
   -1.7032    2.5894    7.6755 H   0  0
   -1.8305    5.0679    7.6173 H   0  0
   -3.0229    0.5034    7.8484 H   0  0
   -4.6530    0.4024    7.1005 H   0  0
   -4.6335    1.3127    4.7638 H   0  0
   -4.6223   -0.4780    4.6232 H   0  0
   -3.9405    1.5042    0.2966 H   0  0
   -2.9230    2.9821    0.3767 H   0  0
   -2.7029    1.8792   -1.8389 H   0  0
   -2.1837    0.3582   -1.0359 H   0  0
   -0.2259    1.6657   -1.8530 H   0  0
   -0.7443    3.0638   -0.8522 H   0  0
    1.0202    1.7330    0.2987 H   0  0
   -0.0230    0.2734    0.2043 H   0  0
   -0.7159    2.8956    1.6433 H   0  0
   -0.0367    0.0900    2.6903 H   0  0
   -0.5319    1.4945    3.6939 H   0  0
    1.0230    1.5358    2.7967 H   0  0
   -2.5661   -1.2220    4.8185 H   0  0
   -2.9904   -2.8764    6.9673 H   0  0
   -3.5210   -1.1658    7.8425 H   0  0
   -1.3362   -0.3729    7.6165 H   0  0
   -0.8060   -2.0829    6.7398 H   0  0
  1  2  1  0
  2  7  2  0
  2  3  1  0
  3  4  2  0
  4  5  1  0
  5  6  2  0
  5  8  1  0
  6  7  1  0
  8  9  1  0
  9 10  1  0
  9 24  1  0
 10 11  1  0
 11 22  1  0
 11 12  1  0
 12 13  2  0
 12 14  1  0
 14 19  1  0
 14 15  1  0
 14 21  1  0
 15 16  1  0
 16 17  1  0
 17 18  1  0
 18 19  1  0
 19 20  1  0
 21 22  1  0
 22 23  2  0
 24 26  1  0
 24 25  1  0
 25 26  1  0
  1 27  1  0
  1 28  1  0
  1 29  1  0
  3 30  1  0
  4 31  1  0
  6 32  1  0
  7 33  1  0
  8 34  1  0
  8 35  1  0
 10 36  1  0
 10 37  1  0
 15 38  1  0
 15 39  1  0
 16 40  1  0
 16 41  1  0
 17 42  1  0
 17 43  1  0
 18 44  1  0
 18 45  1  0
 19 46  1  0
 20 47  1  0
 20 48  1  0
 20 49  1  0
 24 50  1  0
 25 51  1  0
 25 52  1  0
 26 53  1  0
 26 54  1  0
M  CHG  1  21  -1
M  END
> <Name>
ZINC26654435

> <reference>
BDB50272199

> <quality>
0.742

> <status>
decoy

$$$$
ZINC31466576
  SciTegic06061311253D

 49 51  0  0  0  0            999 V2000
    0.2261  -10.3768    1.9845 C   0  0
    0.4926   -9.5349    0.7633 C   0  0
   -0.1739   -9.8016   -0.4184 C   0  0
    0.0677   -9.0305   -1.5403 C   0  0
    0.9764   -7.9915   -1.4832 C   0  0
    1.6467   -7.7222   -0.2988 C   0  0
    1.4067   -8.5010    0.8239 C   0  0
    2.5411   -6.7006   -0.2400 O   0  0
    3.1939   -6.4812    1.0120 C   0  0
    4.1566   -5.2987    0.8849 C   0  0
    3.4016   -4.0855    0.6276 O   0  0
    4.1053   -2.9450    0.4886 C   0  0
    5.3166   -2.9637    0.5799 O   0  0
    3.4048   -1.6732    0.2255 C   0  0
    2.0101   -1.6167    0.2481 C   0  0
    1.4010   -0.3867   -0.0065 C   0  0
    0.0150    0.0672   -0.0703 C   0  0
    0.0299    1.3385   -0.3506 N   0  0
    1.3474    1.7867   -0.4836 N   0  0
    2.2034    0.7423   -0.2759 C   0  0
    3.5281    0.6343   -0.2862 N   0  0
    4.1316   -0.5065   -0.0504 C   0  0
    5.6373   -0.5638   -0.0760 C   0  0
    1.7475    3.1607   -0.7969 C   0  0
   -1.2108   -0.7819    0.1480 C   0  0
   -0.6612   -9.3233   -2.8264 C   0  0
   -0.0811   -9.6627    2.7628 H   0  0
    1.2088  -10.7747    2.2777 H   0  0
   -0.5185  -11.1704    1.8239 H   0  0
   -0.8976  -10.6287   -0.4660 H   0  0
    1.1683   -7.3783   -2.3760 H   0  0
    1.9438   -8.2954    1.7616 H   0  0
    3.7569   -7.3825    1.2962 H   0  0
    2.4421   -6.2599    1.7839 H   0  0
    4.7239   -5.1854    1.8205 H   0  0
    4.8533   -5.4795    0.0531 H   0  0
    1.4097   -2.5137    0.4600 H   0  0
    5.8860   -1.3353   -0.8196 H   0  0
    5.9299   -0.9536    0.9101 H   0  0
    6.1118    0.4027   -0.3013 H   0  0
    1.2416    3.7442   -0.0136 H   0  0
    1.1972    3.3665   -1.7268 H   0  0
    2.8282    3.3535   -0.8675 H   0  0
   -1.0138   -1.2234    1.1361 H   0  0
   -1.0580   -1.5988   -0.5727 H   0  0
   -2.1868   -0.2817    0.0634 H   0  0
   -1.7292   -9.2689   -2.5686 H   0  0
   -0.4340  -10.3760   -3.0506 H   0  0
   -0.3928   -8.6493   -3.6533 H   0  0
  1  2  1  0
  2  7  2  0
  2  3  1  0
  3  4  2  0
  4  5  1  0
  4 26  1  0
  5  6  2  0
  6  7  1  0
  6  8  1  0
  8  9  1  0
  9 10  1  0
 10 11  1  0
 11 12  1  0
 12 13  2  0
 12 14  1  0
 14 22  2  0
 14 15  1  0
 15 16  2  0
 16 20  1  0
 16 17  1  0
 17 18  2  0
 17 25  1  0
 18 19  1  0
 19 20  1  0
 19 24  1  0
 20 21  2  0
 21 22  1  0
 22 23  1  0
  1 27  1  0
  1 28  1  0
  1 29  1  0
  3 30  1  0
  5 31  1  0
  7 32  1  0
  9 33  1  0
  9 34  1  0
 10 35  1  0
 10 36  1  0
 15 37  1  0
 23 38  1  0
 23 39  1  0
 23 40  1  0
 24 41  1  0
 24 42  1  0
 24 43  1  0
 25 44  1  0
 25 45  1  0
 25 46  1  0
 26 47  1  0
 26 48  1  0
 26 49  1  0
M  END
> <Name>
ZINC31466576

> <reference>
BDB50272199

> <quality>
0.737

> <status>
decoy

$$$$
ZINC28577288
  SciTegic06061311253D

 36 37  0  0  1  0            999 V2000
   -0.8287   -2.6177   -6.3878 C   0  0
   -0.0625   -2.9198   -5.0984 C   0  0
   -1.0518   -3.2954   -3.9934 C   0  0  1  0  0  0
   -1.7556   -4.6030   -4.3618 C   0  0
   -0.3304   -3.4682   -2.7301 N   0  0
   -0.5357   -2.7643   -1.5937 C   0  0
    0.3325   -3.2350   -0.6563 C   0  0
    1.0892   -4.2513   -1.2464 C   0  0
    0.6961   -4.3896   -2.4866 N   0  0
   -1.4692   -1.7474   -1.4133 N   0  0
   -1.5319   -0.9263    0.0234 S   0  0
   -2.5899    0.0152   -0.0926 O   0  0
   -0.1989   -0.5403    0.3291 O   0  0
   -2.0186   -2.0806    1.2625 C   0  0
   -1.1491   -2.4015    2.2879 C   0  0
   -1.5314   -3.3073    3.2610 C   0  0
   -2.7839   -3.8931    3.2072 C   0  0
   -3.6535   -3.5716    2.1826 C   0  0
   -3.2711   -2.6654    1.2092 C   0  0
   -4.3634   -2.2620   -0.0783 Cl  0  0
   -0.4391   -3.7107    4.5486 Cl  0  0
   -1.5211   -1.7803   -6.2165 H   0  0
   -1.3987   -3.5073   -6.6939 H   0  0
   -0.1180   -2.3476   -7.1827 H   0  0
    0.5075   -2.0302   -4.7923 H   0  0
    0.6294   -3.7574   -5.2706 H   0  0
   -1.7988   -2.4955   -3.8826 H   0  0
   -1.0095   -5.4036   -4.4726 H   0  0
   -2.2979   -4.4742   -5.3101 H   0  0
   -2.4671   -4.8736   -3.5677 H   0  0
    0.4224   -2.8789    0.3806 H   0  0
    1.8800   -4.8350   -0.7525 H   0  0
   -2.1209   -1.5057   -2.1734 H   0  0
   -0.1531   -1.9366    2.3302 H   0  0
   -3.0873   -4.6147    3.9800 H   0  0
   -4.6498   -4.0360    2.1407 H   0  0
  1  2  1  0
  2  3  1  0
  3  4  1  0
  3  5  1  0
  5  9  1  0
  5  6  1  0
  6  7  2  0
  6 10  1  0
  7  8  1  0
  8  9  2  0
 10 11  1  0
 11 12  2  0
 11 13  2  0
 11 14  1  0
 14 19  2  0
 14 15  1  0
 15 16  2  0
 16 17  1  0
 16 21  1  0
 17 18  2  0
 18 19  1  0
 19 20  1  0
  1 22  1  0
  1 23  1  0
  1 24  1  0
  2 25  1  0
  2 26  1  0
  3 27  1  0
  4 28  1  0
  4 29  1  0
  4 30  1  0
  7 31  1  0
  8 32  1  0
 10 33  1  0
 15 34  1  0
 17 35  1  0
 18 36  1  0
M  END
> <Name>
ZINC28577288

> <reference>
BDB50272199

> <quality>
0.734

> <status>
decoy

$$$$
ZINC05155913
  SciTegic06061311253D

 39 40  0  0  0  0            999 V2000
   -1.3789    6.7061   -2.2327 C   0  0
   -0.1009    6.5033   -1.5459 N   0  0
    1.1582    6.7406   -2.2562 C   0  0
   -0.0794    6.0058    0.0335 S   0  0
   -1.3250    6.3921    0.5979 O   0  0
    1.1654    6.4260    0.5748 O   0  0
   -0.0555    4.2439    0.0244 C   0  0
    1.1538    3.5716    0.0097 C   0  0
    1.1796    2.1924    0.0026 C   0  0
   -0.0180    1.4749    0.0102 C   0  0
   -1.2347    2.1596    0.0196 C   0  0
   -1.2462    3.5389    0.0325 C   0  0
    0.0021   -0.0041    0.0020 C   0  0
    1.0644   -0.5983   -0.0113 O   0  0
   -1.2537   -0.7521    0.0100 C   0  0
   -1.2354   -2.1032    0.0026 C   0  0
   -2.4987   -2.8557    0.0106 C   0  0
   -3.7218   -2.1760    0.0317 C   0  0
   -4.9017   -2.8880    0.0333 C   0  0
   -4.8790   -4.2735    0.0256 C   0  0
   -3.6717   -4.9534    0.0105 C   0  0
   -2.4837   -4.2549    0.0029 C   0  0
   -6.3704   -5.1619    0.0356 Cl  0  0
   -1.3269    6.0599   -3.1214 H   0  0
   -1.3449    7.7459   -2.5900 H   0  0
   -2.2642    6.5013   -1.6128 H   0  0
    1.0894    7.7790   -2.6126 H   0  0
    1.1074    6.0930   -3.1439 H   0  0
    2.0601    6.5601   -1.6528 H   0  0
    2.0966    4.1382    0.0037 H   0  0
    2.1416    1.6591   -0.0090 H   0  0
   -2.1820    1.6004    0.0167 H   0  0
   -2.2040    4.0796    0.0493 H   0  0
   -2.2136   -0.2151    0.0220 H   0  0
   -0.2754   -2.6402   -0.0094 H   0  0
   -3.7413   -1.0763    0.0470 H   0  0
   -5.8640   -2.3551    0.0407 H   0  0
   -3.6615   -6.0533    0.0046 H   0  0
   -1.5260   -4.7960   -0.0092 H   0  0
  1  2  1  0
  2  3  1  0
  2  4  1  0
  4  5  2  0
  4  6  2  0
  4  7  1  0
  7 12  2  0
  7  8  1  0
  8  9  2  0
  9 10  1  0
 10 11  2  0
 10 13  1  0
 11 12  1  0
 13 14  2  0
 13 15  1  0
 15 16  2  0
 16 17  1  0
 17 22  2  0
 17 18  1  0
 18 19  2  0
 19 20  1  0
 20 21  2  0
 20 23  1  0
 21 22  1  0
  1 24  1  0
  1 25  1  0
  1 26  1  0
  3 27  1  0
  3 28  1  0
  3 29  1  0
  8 30  1  0
  9 31  1  0
 11 32  1  0
 12 33  1  0
 15 34  1  0
 16 35  1  0
 18 36  1  0
 19 37  1  0
 21 38  1  0
 22 39  1  0
M  END
> <Name>
ZINC05155913

> <reference>
BDB50272199

> <quality>
0.731

> <status>
decoy

$$$$
ZINC13634266
  SciTegic06061311253D

 45 48  0  0  1  0            999 V2000
    2.8232    4.3980    0.1245 C   0  0
    1.3921    3.8692    0.0095 C   0  0  1  0  0  0
    0.7632    4.3778   -1.2891 C   0  0
    1.4129    2.3393    0.0011 C   0  0
   -0.0225    1.8097    0.0120 C   0  0
    0.0021   -0.0041    0.0020 S   0  0
   -1.7016   -0.4536    0.0159 C   0  0
   -2.7230    0.4017    0.0360 N   0  0
   -3.8698   -0.2678    0.0396 C   0  0
   -5.1448    0.1430    0.0574 N   0  0
   -6.1397   -0.7160    0.0661 C   0  0
   -5.8582   -2.0998    0.0487 C   0  0
   -4.5412   -2.5277    0.0316 C   0  0
   -3.5614   -1.6006    0.0281 N   0  0
   -2.1630   -1.6874    0.0136 N   0  0
   -6.9568   -3.0783    0.0446 C   0  0
   -6.7527   -4.2522   -0.1821 O   0  0
   -8.3529   -2.5649    0.3335 C   0  0
   -8.5294   -1.2511   -0.4384 C   0  0  2  0  0  0
   -7.5549   -0.2071    0.1004 C   0  0
   -9.9419   -0.7545   -0.2679 C   0  0
  -10.8273   -0.5455   -1.2588 C   0  0
  -12.0193   -0.0862   -0.6529 C   0  0
  -11.7884   -0.0342    0.6712 C   0  0
  -10.5285   -0.4401    0.8986 O   0  0
    2.8094    5.4979    0.1309 H   0  0
    3.4158    4.0443   -0.7321 H   0  0
    3.2760    4.0326    1.0581 H   0  0
    0.8004    4.2232    0.8666 H   0  0
    1.3540    4.0241   -2.1469 H   0  0
    0.7476    5.4777   -1.2839 H   0  0
   -0.2658    3.9979   -1.3724 H   0  0
    1.9272    1.9844   -0.9042 H   0  0
    1.9445    1.9738    0.8920 H   0  0
   -0.5373    2.1638    0.9173 H   0  0
   -0.5555    2.1733   -0.8789 H   0  0
   -4.2993   -3.6007    0.0211 H   0  0
   -9.0972   -3.2990   -0.0089 H   0  0
   -8.4660   -2.3792    1.4118 H   0  0
   -8.3270   -1.4240   -1.5057 H   0  0
   -7.6279    0.7049   -0.5102 H   0  0
   -7.8261    0.0399    1.1374 H   0  0
  -10.6567   -0.7019   -2.3342 H   0  0
  -12.9558    0.1779   -1.1659 H   0  0
  -12.5092    0.2864    1.4378 H   0  0
  1  2  1  0
  2  3  1  0
  2  4  1  0
  4  5  1  0
  5  6  1  0
  6  7  1  0
  7 15  2  0
  7  8  1  0
  8  9  2  0
  9 14  1  0
  9 10  1  0
 10 11  2  0
 11 20  1  0
 11 12  1  0
 12 13  2  0
 12 16  1  0
 13 14  1  0
 14 15  1  0
 16 17  2  0
 16 18  1  0
 18 19  1  0
 19 20  1  0
 19 21  1  0
 21 25  1  0
 21 22  2  0
 22 23  1  0
 23 24  2  0
 24 25  1  0
  1 26  1  0
  1 27  1  0
  1 28  1  0
  2 29  1  0
  3 30  1  0
  3 31  1  0
  3 32  1  0
  4 33  1  0
  4 34  1  0
  5 35  1  0
  5 36  1  0
 13 37  1  0
 18 38  1  0
 18 39  1  0
 19 40  1  0
 20 41  1  0
 20 42  1  0
 22 43  1  0
 23 44  1  0
 24 45  1  0
M  END
> <Name>
ZINC13634266

> <reference>
BDB50272199

> <quality>
0.729

> <status>
decoy

$$$$
ZINC03349438
  SciTegic06061311253D

 41 43  0  0  0  0            999 V2000
    4.3497   -4.3727    0.0661 C   0  0
    2.8590   -4.0283    0.0596 C   0  0
    2.6956   -2.5856    0.0400 O   0  0
    1.4328   -2.1126    0.0321 C   0  0
    0.4941   -2.8852    0.0412 O   0  0
    1.1915   -0.6648    0.0124 C   0  0
    0.0021   -0.0041    0.0020 C   0  0
   -0.0170    1.3989   -0.0163 C   0  0
    1.2555    2.0279   -0.0227 C   0  0
    2.3862    0.6609   -0.0032 S   0  0
    1.3739    3.3377   -0.0389 N   0  0
    0.2989    4.1023   -0.0496 C   0  0
   -0.9161    3.5820   -0.0446 N   0  0
   -1.1269    2.2827   -0.0239 C   0  0
   -2.7462    1.6572   -0.0099 Cl  0  0
    0.4596    5.6006   -0.0686 C   0  0
    1.7273    5.5859   -2.1325 C   0  0
    1.7133    6.0466   -3.5924 C   0  0
    1.6015    7.4717   -3.6363 O   0  0
    0.4298    7.9774   -2.9907 C   0  0
    0.4308    7.5362   -1.5246 C   0  0
   -1.2915   -0.7771    0.0097 C   0  0
    0.4922    6.0601   -1.4740 N   0  0
    4.8235   -3.9386    0.9589 H   0  0
    4.8257   -3.9627   -0.8368 H   0  0
    4.4742   -5.4655    0.0809 H   0  0
    2.3861   -4.4625   -0.8336 H   0  0
    2.3829   -4.4383    0.9625 H   0  0
   -0.3891    6.0686    0.4517 H   0  0
    1.3999    5.8775    0.4305 H   0  0
    2.6035    6.0094   -1.6198 H   0  0
    1.7671    4.4873   -2.0931 H   0  0
    2.6471    5.7366   -4.0843 H   0  0
    0.8555    5.5954   -4.1127 H   0  0
    0.4268    9.0762   -3.0429 H   0  0
   -0.4664    7.5824   -3.4916 H   0  0
    1.3081    7.9590   -1.0131 H   0  0
   -0.4903    7.8832   -1.0336 H   0  0
   -1.2377   -1.4159    0.9036 H   0  0
   -1.2348   -1.4385   -0.8674 H   0  0
   -2.1891   -0.1413    0.0001 H   0  0
  1  2  1  0
  2  3  1  0
  3  4  1  0
  4  5  2  0
  4  6  1  0
  6 10  1  0
  6  7  2  0
  7  8  1  0
  7 22  1  0
  8 14  2  0
  8  9  1  0
  9 10  1  0
  9 11  2  0
 11 12  1  0
 12 13  2  0
 12 16  1  0
 13 14  1  0
 14 15  1  0
 16 23  1  0
 17 18  1  0
 17 23  1  0
 18 19  1  0
 19 20  1  0
 20 21  1  0
 21 23  1  0
  1 24  1  0
  1 25  1  0
  1 26  1  0
  2 27  1  0
  2 28  1  0
 16 29  1  0
 16 30  1  0
 17 31  1  0
 17 32  1  0
 18 33  1  0
 18 34  1  0
 20 35  1  0
 20 36  1  0
 21 37  1  0
 21 38  1  0
 22 39  1  0
 22 40  1  0
 22 41  1  0
M  END
> <Name>
ZINC03349438

> <reference>
BDB50272199

> <quality>
0.725

> <status>
decoy

$$$$
ZINC19333655
  SciTegic06061311253D

 56 60  0  0  1  0            999 V2000
   -0.0360    1.1453   -0.0131 C   0  0
   -0.7475    1.6267    1.2530 C   0  0
   -0.0029    1.1080    2.4849 C   0  0
   -0.7143    1.5895    3.7510 C   0  0  1  0  0  0
   -0.7820    3.1242    3.8072 C   0  0
   -1.5017    3.5125    5.0528 N   0  0
   -2.8915    3.0374    5.0768 C   0  0
   -2.9033    1.5003    5.0698 C   0  0  1  0  0  0
   -2.1444    1.0639    3.8211 C   0  0
   -2.6319    0.3656    2.9648 O   0  0
   -2.0868    1.0074    6.2753 C   0  0
   -0.7295    1.5645    6.2030 N   0  0
   -0.0011    1.0921    5.0187 C   0  0
   -0.7713    3.0344    6.2367 C   0  0  1  0  0  0
    0.6331    3.5806    6.2229 C   0  0
    0.9074    4.7229    5.5656 C   0  0
    2.3314    5.1650    5.6073 C   0  0  1  0  0  0
    3.1973    3.8988    5.3406 C   0  0  2  0  0  0
    2.9874    2.9920    6.5089 C   0  0
    1.7146    2.8617    6.9252 C   0  0
    4.4845    4.4883    5.1704 O   0  0
    4.1877    5.6835    4.3882 C   0  0
    2.8052    6.0530    4.6085 O   0  0
   -4.3321    0.9532    5.0755 C   0  0
   -4.2926   -0.5763    5.0683 C   0  0
   -5.7214   -1.1235    5.0740 C   0  0
   -0.0209    0.0455   -0.0308 H   0  0
    0.9960    1.5258   -0.0222 H   0  0
   -0.5708    1.5179   -0.8992 H   0  0
   -0.7619    2.7265    1.2700 H   0  0
   -1.7796    1.2462    1.2621 H   0  0
    1.0292    1.4883    2.4780 H   0  0
    0.0114    0.0082    2.4688 H   0  0
   -1.3287    3.5035    2.9313 H   0  0
    0.2367    3.5389    3.8245 H   0  0
   -3.3892    3.4036    5.9869 H   0  0
   -3.4240    3.4118    4.1901 H   0  0
   -2.5700    1.3388    7.2063 H   0  0
   -2.0333   -0.0912    6.2593 H   0  0
    1.0267    1.4835    5.0405 H   0  0
    0.0240   -0.0076    5.0183 H   0  0
   -1.2783    3.3753    7.1515 H   0  0
    0.1322    5.2930    5.0326 H   0  0
    2.4004    5.6828    6.5753 H   0  0
    2.9833    3.2554    4.4744 H   0  0
    3.8199    2.4646    6.9975 H   0  0
    1.4801    2.2204    7.7876 H   0  0
    4.3469    5.4750    3.3199 H   0  0
    4.8440    6.5061    4.7086 H   0  0
   -4.8547    1.3017    5.9785 H   0  0
   -4.8660    1.3097    4.1822 H   0  0
   -3.7600   -0.9347    5.9616 H   0  0
   -3.7704   -0.9255    4.1653 H   0  0
   -6.2552   -0.7670    4.1807 H   0  0
   -6.2449   -0.7752    5.9766 H   0  0
   -5.6937   -2.2231    5.0688 H   0  0
  1  2  1  0
  2  3  1  0
  3  4  1  0
  4  9  1  0
  4 13  1  0
  4  5  1  0
  5  6  1  0
  6 14  1  0
  6  7  1  0
  7  8  1  0
  8  9  1  0
  8 11  1  0
  8 24  1  0
  9 10  2  0
 11 12  1  0
 12 13  1  0
 12 14  1  0
 14 15  1  0
 15 20  1  0
 15 16  2  0
 16 17  1  0
 17 23  1  0
 17 18  1  0
 18 19  1  0
 18 21  1  0
 19 20  2  0
 21 22  1  0
 22 23  1  0
 24 25  1  0
 25 26  1  0
  1 27  1  0
  1 28  1  0
  1 29  1  0
  2 30  1  0
  2 31  1  0
  3 32  1  0
  3 33  1  0
  5 34  1  0
  5 35  1  0
  7 36  1  0
  7 37  1  0
 11 38  1  0
 11 39  1  0
 13 40  1  0
 13 41  1  0
 14 42  1  0
 16 43  1  0
 17 44  1  0
 18 45  1  0
 19 46  1  0
 20 47  1  0
 22 48  1  0
 22 49  1  0
 24 50  1  0
 24 51  1  0
 25 52  1  0
 25 53  1  0
 26 54  1  0
 26 55  1  0
 26 56  1  0
M  END
> <Name>
ZINC19333655

> <reference>
BDB50272199

> <quality>
0.725

> <status>
decoy

$$$$
ZINC12980581
  SciTegic06061311253D

 37 39  0  0  0  0            999 V2000
    2.5281   -2.6581   -0.0507 C   0  0
    1.2442   -2.0312   -0.0280 O   0  0
    1.2211   -0.6724   -0.0236 C   0  0
    0.0088    0.0000   -0.0019 C   0  0
   -0.0146    1.3882    0.0031 C   0  0
    1.1761    2.1019   -0.0136 C   0  0
    2.3876    1.4280   -0.0353 C   0  0
    2.4102    0.0413   -0.0403 C   0  0
    3.5532    2.1264   -0.0517 O   0  0
    4.7639    1.3676   -0.0736 C   0  0
   -1.2370    2.0671    0.0192 N   0  0
   -1.3548    3.2269    0.6955 C   0  0
   -0.3782    3.7262    1.2215 O   0  0
   -2.6656    3.8896    0.7978 C   0  0
   -2.7956    5.0702    1.4839 C   0  0
   -4.4905    5.3980    1.2953 S   0  0
   -4.9069    3.9570    0.3264 C   0  0
   -3.7352    3.3555    0.2228 N   0  0
   -6.2172    3.5476   -0.2208 C   0  0
   -7.3555    4.3255   -0.0093 C   0  0
   -8.5204    3.8911   -0.5390 C   0  0
   -8.0319    2.3776   -1.3452 S   0  0
   -6.3439    2.4000   -0.9519 C   0  0
    3.0700   -2.2851    0.8309 H   0  0
    3.0412   -2.2798   -0.9472 H   0  0
    2.4653   -3.7563   -0.0529 H   0  0
   -0.9342   -0.5662    0.0114 H   0  0
    1.1584    3.2017   -0.0096 H   0  0
    3.3717   -0.4928   -0.0575 H   0  0
    4.7095    0.7241   -0.9641 H   0  0
    4.7380    0.7183    0.8139 H   0  0
    5.6630    2.0012   -0.0859 H   0  0
   -2.0473    1.6808   -0.4858 H   0  0
   -2.0290    5.6548    2.0135 H   0  0
   -7.3067    5.2602    0.5686 H   0  0
   -9.5170    4.3538   -0.4862 H   0  0
   -5.5666    1.6706   -1.2237 H   0  0
  1  2  1  0
  2  3  1  0
  3  8  2  0
  3  4  1  0
  4  5  2  0
  5  6  1  0
  5 11  1  0
  6  7  2  0
  7  8  1  0
  7  9  1  0
  9 10  1  0
 11 12  1  0
 12 13  2  0
 12 14  1  0
 14 18  1  0
 14 15  2  0
 15 16  1  0
 16 17  1  0
 17 18  2  0
 17 19  1  0
 19 23  2  0
 19 20  1  0
 20 21  2  0
 21 22  1  0
 22 23  1  0
  1 24  1  0
  1 25  1  0
  1 26  1  0
  4 27  1  0
  6 28  1  0
  8 29  1  0
 10 30  1  0
 10 31  1  0
 10 32  1  0
 11 33  1  0
 15 34  1  0
 20 35  1  0
 21 36  1  0
 23 37  1  0
M  END
> <Name>
ZINC12980581

> <reference>
BDB50272199

> <quality>
0.723

> <status>
decoy

$$$$
ZINC27776292
  SciTegic06061311253D

 41 44  0  0  1  0            999 V2000
   -9.7723   -7.1519    0.3363 C   0  0
   -8.7360   -6.7652    1.3933 C   0  0  1  0  0  0
   -8.2657   -8.0210    2.1299 C   0  0
   -7.5583   -6.1047    0.7241 C   0  0
   -7.1099   -4.8573    0.9519 N   0  0
   -6.0772   -4.7031    0.1586 C   0  0
   -5.9361   -5.8447   -0.5217 O   0  0
   -6.7898   -6.6356   -0.1793 N   0  0
   -5.2178   -3.4715    0.0332 C   0  0  2  0  0  0
   -5.5594   -2.7415   -1.2674 C   0  0
   -3.4731   -3.9527    0.0146 S   0  0
   -2.7168   -2.3612    0.0159 C   0  0
   -3.3390   -1.2055    0.0280 N   0  0
   -2.4740   -0.2533    0.0248 N   0  0
   -1.2659   -0.7619    0.0105 C   0  0
   -1.3941   -2.1073   -0.0009 O   0  0
    0.0021   -0.0041    0.0020 C   0  0
    1.2226   -0.6820   -0.0133 C   0  0
    2.4052    0.0273   -0.0208 C   0  0
    2.3875    1.4145   -0.0136 C   0  0
    1.1720    2.0976    0.0021 C   0  0
   -0.0169    1.3920    0.0097 C   0  0
    1.4260    3.4391    0.0056 O   0  0
    2.8030    3.5683    0.4056 C   0  0
    3.4008    2.3294   -0.0193 O   0  0
  -10.6325   -7.6339    0.8238 H   0  0
   -9.3205   -7.8506   -0.3832 H   0  0
  -10.1109   -6.2494   -0.1937 H   0  0
   -9.1887   -6.0664    2.1121 H   0  0
   -7.8126   -8.7204    1.4119 H   0  0
   -9.1246   -8.5038    2.6190 H   0  0
   -7.5206   -7.7436    2.8901 H   0  0
   -5.4053   -2.8049    0.8879 H   0  0
   -6.6196   -2.4484   -1.2570 H   0  0
   -5.3720   -3.4072   -2.1228 H   0  0
   -4.9324   -1.8424   -1.3596 H   0  0
    1.2408   -1.7818   -0.0194 H   0  0
    3.3658   -0.5086   -0.0325 H   0  0
   -0.9764    1.9297    0.0218 H   0  0
    3.2728    4.4151   -0.1161 H   0  0
    2.8747    3.6690    1.4986 H   0  0
  1  2  1  0
  2  3  1  0
  2  4  1  0
  4  8  2  0
  4  5  1  0
  5  6  2  0
  6  7  1  0
  6  9  1  0
  7  8  1  0
  9 10  1  0
  9 11  1  0
 11 12  1  0
 12 16  1  0
 12 13  2  0
 13 14  1  0
 14 15  2  0
 15 16  1  0
 15 17  1  0
 17 22  2  0
 17 18  1  0
 18 19  2  0
 19 20  1  0
 20 25  1  0
 20 21  2  0
 21 22  1  0
 21 23  1  0
 23 24  1  0
 24 25  1  0
  1 26  1  0
  1 27  1  0
  1 28  1  0
  2 29  1  0
  3 30  1  0
  3 31  1  0
  3 32  1  0
  9 33  1  0
 10 34  1  0
 10 35  1  0
 10 36  1  0
 18 37  1  0
 19 38  1  0
 22 39  1  0
 24 40  1  0
 24 41  1  0
M  END
> <Name>
ZINC27776292

> <reference>
BDB50272199

> <quality>
0.718

> <status>
decoy

$$$$
ZINC23343922
  SciTegic06061311253D

 39 41  0  0  0  0            999 V2000
    4.1463    5.0539   -0.0099 C   0  0
    3.5724    3.6605   -0.0124 C   0  0
    2.1883    3.4630   -0.0002 C   0  0
    1.7084    2.1353   -0.0028 C   0  0
    2.5889    1.1376   -0.0110 N   0  0
    3.8827    1.3796   -0.0277 C   0  0
    4.3700    2.6063   -0.0258 N   0  0
    4.8404    0.2161   -0.0431 C   0  0
   -0.0225    1.8057    0.0120 S   0  0
    0.0021   -0.0041    0.0020 C   0  0
    1.2592    4.6054    0.0143 C   0  0
    0.8855    5.0712    1.0728 O   0  0
    0.8233    5.1343   -1.1461 O   0  0
   -0.0909    6.2588   -1.0557 C   0  0
   -0.4672    6.7129   -2.4425 C   0  0
   -0.0183    6.1627   -3.6582 C   0  0
   -0.6465    6.9211   -4.6144 C   0  0
   -1.3816    7.8293   -3.9458 O   0  0
   -1.2672    7.6954   -2.7498 N   0  0
   -0.5346    6.7749   -6.0729 C   0  0
   -1.1445    7.5111   -7.0722 C   0  0
   -0.8781    7.1839   -8.3812 C   0  0
   -0.0395    6.1492   -8.6505 C   0  0
    0.4179    5.5957   -7.0163 S   0  0
    4.7892    5.0985   -0.9014 H   0  0
    4.8058    5.0885    0.8698 H   0  0
    3.3854    5.8482    0.0017 H   0  0
    4.5716   -0.3785   -0.9286 H   0  0
    4.5952   -0.3825    0.8466 H   0  0
    5.8961    0.5248   -0.0565 H   0  0
    0.4453   -0.4498    0.9047 H   0  0
    0.4279   -0.4399   -0.9138 H   0  0
   -1.0530   -0.3149    0.0104 H   0  0
   -0.9969    5.9522   -0.5124 H   0  0
    0.3960    7.0865   -0.5192 H   0  0
    0.6744    5.3212   -3.8071 H   0  0
   -1.8263    8.3385   -6.8260 H   0  0
   -1.3390    7.7538   -9.2014 H   0  0
    0.2769    5.7535   -9.6269 H   0  0
  1  2  1  0
  2  7  2  0
  2  3  1  0
  3  4  2  0
  3 11  1  0
  4  5  1  0
  4  9  1  0
  5  6  2  0
  6  7  1  0
  6  8  1  0
  9 10  1  0
 11 12  2  0
 11 13  1  0
 13 14  1  0
 14 15  1  0
 15 19  2  0
 15 16  1  0
 16 17  2  0
 17 18  1  0
 17 20  1  0
 18 19  1  0
 20 24  1  0
 20 21  2  0
 21 22  1  0
 22 23  2  0
 23 24  1  0
  1 25  1  0
  1 26  1  0
  1 27  1  0
  8 28  1  0
  8 29  1  0
  8 30  1  0
 10 31  1  0
 10 32  1  0
 10 33  1  0
 14 34  1  0
 14 35  1  0
 16 36  1  0
 21 37  1  0
 22 38  1  0
 23 39  1  0
M  END
> <Name>
ZINC23343922

> <reference>
BDB50272199

> <quality>
0.717

> <status>
decoy

$$$$
ZINC06803646
  SciTegic06061311253D

 47 49  0  0  1  0            999 V2000
   -1.0668    6.1466   -2.7715 C   0  0
   -1.1670    5.6048   -1.3442 C   0  0
   -1.1513    4.0753   -1.3769 C   0  0
   -1.2516    3.5336    0.0505 C   0  0
   -1.2365    2.0690    0.0191 N   0  0
   -0.0214    1.3803    0.0930 C   0  0
    0.5348    1.0810    1.3299 C   0  0
    1.7379    0.4063    1.3992 C   0  0
    2.3882    0.0280    0.2389 C   0  0
    1.8370    0.3246   -0.9942 C   0  0
    0.6345    0.9994   -1.0705 C   0  0
    2.5491   -0.0896   -2.2561 C   0  0
    2.3424    0.0815    2.7409 C   0  0
   -2.4190    1.3702   -0.0830 C   0  0
   -3.6126    1.8654   -0.1728 N   0  0
   -4.7870    1.0237   -0.3040 C   0  0  1  0  0  0
   -5.5549    1.4200   -1.5873 C   0  0
   -6.2081   -0.2075   -2.1581 S   0  0
   -6.1967   -0.2472   -3.5785 O   0  0
   -7.4049   -0.5088   -1.4538 O   0  0
   -4.8346   -1.2549   -1.5061 C   0  0
   -4.4473   -0.4726   -0.2369 C   0  0  1  0  0  0
   -2.6206   -0.4003   -0.1110 S   0  0
   -1.9206    5.7845   -3.3630 H   0  0
   -0.1296    5.8000   -3.2314 H   0  0
   -1.0780    7.2463   -2.7487 H   0  0
   -0.3127    5.9672   -0.7535 H   0  0
   -2.1042    5.9513   -0.8842 H   0  0
   -2.0056    3.7122   -1.9672 H   0  0
   -0.2141    3.7268   -1.8355 H   0  0
   -2.1889    3.8801    0.5104 H   0  0
   -0.3974    3.8960    0.6412 H   0  0
    0.0177    1.3810    2.2533 H   0  0
    3.3459   -0.5100    0.2969 H   0  0
    0.1966    1.2350   -2.0517 H   0  0
    2.6800   -1.1781   -2.1666 H   0  0
    3.5480    0.3652   -2.1834 H   0  0
    2.0225    0.1966   -3.1785 H   0  0
    1.5696   -0.4943    3.2712 H   0  0
    2.4364    1.0497    3.2544 H   0  0
    3.2998   -0.4567    2.6788 H   0  0
   -5.4491    1.1946    0.5576 H   0  0
   -6.3898    2.0948   -1.3473 H   0  0
   -4.8673    1.8319   -2.3407 H   0  0
   -5.2149   -2.2542   -1.2476 H   0  0
   -4.0010   -1.2715   -2.2236 H   0  0
   -4.9807   -0.9873    0.5759 H   0  0
  1  2  1  0
  2  3  1  0
  3  4  1  0
  4  5  1  0
  5  6  1  0
  5 14  1  0
  6 11  2  0
  6  7  1  0
  7  8  2  0
  8  9  1  0
  8 13  1  0
  9 10  2  0
 10 11  1  0
 10 12  1  0
 14 23  1  0
 14 15  2  0
 15 16  1  0
 16 22  1  0
 16 17  1  0
 17 18  1  0
 18 19  2  0
 18 20  2  0
 18 21  1  0
 21 22  1  0
 22 23  1  0
  1 24  1  0
  1 25  1  0
  1 26  1  0
  2 27  1  0
  2 28  1  0
  3 29  1  0
  3 30  1  0
  4 31  1  0
  4 32  1  0
  7 33  1  0
  9 34  1  0
 11 35  1  0
 12 36  1  0
 12 37  1  0
 12 38  1  0
 13 39  1  0
 13 40  1  0
 13 41  1  0
 16 42  1  0
 17 43  1  0
 17 44  1  0
 21 45  1  0
 21 46  1  0
 22 47  1  0
M  END
> <Name>
ZINC06803646

> <reference>
BDB50272199

> <quality>
0.717

> <status>
decoy

$$$$
ZINC15179226
  SciTegic06061311253D

 41 42  0  0  1  0            999 V2000
   -0.2690    5.3384   -1.3731 C   0  0
   -0.0547    5.2294    0.1379 C   0  0  2  0  0  0
    0.0804    3.7787    0.5227 C   0  0
   -0.9903    2.9186    0.3636 C   0  0
   -0.8648    1.5870    0.7120 C   0  0
    0.3279    1.1174    1.2300 C   0  0
    1.3984    1.9772    1.3891 C   0  0
    1.2747    3.3080    1.0352 C   0  0
    2.6773    1.4731    1.9378 N   0  0
    2.7864    0.3007    2.2492 O   0  0
    3.6206    2.2308    2.0780 O   0  0
   -1.2010    5.8154    0.8372 N   0  0
   -2.5583    5.3568    0.5312 C   0  0
   -1.0068    6.7764    1.7620 C   0  0
    0.1169    7.1560    2.0154 O   0  0
   -2.1859    7.3791    2.4814 C   0  0
   -1.6019    8.6341    3.6538 S   0  0
   -3.0781    9.2361    4.4042 C   0  0
   -4.3116    8.7236    4.0237 C   0  0
   -5.4667    9.1946    4.6169 C   0  0
   -5.3979   10.1827    5.5819 C   0  0
   -4.1725   10.7000    5.9611 C   0  0
   -3.0115   10.2303    5.3753 C   0  0
   -1.8145   10.7361    5.7450 F   0  0
   -1.1851    4.7983   -1.6545 H   0  0
    0.5913    4.8989   -1.8992 H   0  0
   -0.3677    6.3972   -1.6547 H   0  0
    0.8614    5.7700    0.4183 H   0  0
   -1.9421    3.2941   -0.0403 H   0  0
   -1.7139    0.9008    0.5771 H   0  0
    0.4249    0.0595    1.5155 H   0  0
    2.1267    3.9922    1.1615 H   0  0
   -2.5344    4.2706    0.7036 H   0  0
   -2.6689    5.5070   -0.5529 H   0  0
   -3.3477    5.8589    1.1098 H   0  0
   -2.8615    7.8473    1.7504 H   0  0
   -2.7255    6.5913    3.0275 H   0  0
   -4.3686    7.9432    3.2505 H   0  0
   -6.4430    8.7830    4.3212 H   0  0
   -6.3202   10.5583    6.0492 H   0  0
   -4.1216   11.4857    6.7293 H   0  0
  1  2  1  0
  2  3  1  0
  2 12  1  0
  3  8  2  0
  3  4  1  0
  4  5  2  0
  5  6  1  0
  6  7  2  0
  7  8  1  0
  7  9  1  0
  9 10  2  0
  9 11  2  0
 12 13  1  0
 12 14  1  0
 14 15  2  0
 14 16  1  0
 16 17  1  0
 17 18  1  0
 18 23  2  0
 18 19  1  0
 19 20  2  0
 20 21  1  0
 21 22  2  0
 22 23  1  0
 23 24  1  0
  1 25  1  0
  1 26  1  0
  1 27  1  0
  2 28  1  0
  4 29  1  0
  5 30  1  0
  6 31  1  0
  8 32  1  0
 13 33  1  0
 13 34  1  0
 13 35  1  0
 16 36  1  0
 16 37  1  0
 19 38  1  0
 20 39  1  0
 21 40  1  0
 22 41  1  0
M  END
> <Name>
ZINC15179226

> <reference>
BDB50272199

> <quality>
0.717

> <status>
decoy

$$$$
ZINC00622446
  SciTegic06061311253D

 45 47  0  0  0  0            999 V2000
   -1.1789   10.3703   -2.4303 C   0  0
   -0.9305    9.6470   -1.1318 C   0  0
   -1.1357   10.2963    0.0714 C   0  0
   -0.9074    9.6331    1.2624 C   0  0
   -0.4740    8.3203    1.2505 C   0  0
   -0.2689    7.6711    0.0476 C   0  0
   -0.4922    8.3362   -1.1437 C   0  0
    0.2040    6.2403    0.0346 C   0  0
   -1.2268    5.1319    0.0423 S   0  0
   -0.4062    3.5727    0.0251 C   0  0
    0.9008    3.3994    0.0117 N   0  0
    1.1876    2.0972    0.0020 C   0  0
   -0.0170    1.4015    0.0097 C   0  0
   -1.0221    2.3598    0.0190 N   0  0
   -2.4661    2.1123    0.0234 C   0  0
   -2.9555    2.0197    1.4457 C   0  0
   -3.4511    3.0778    2.0381 C   0  0
   -2.8748    0.7099    2.1866 C   0  0
    0.0021   -0.0041    0.0020 C   0  0
   -1.0412   -0.6341    0.0082 O   0  0
    1.1872   -0.6484   -0.0128 N   0  0
    2.3458    0.0332   -0.0206 C   0  0
    3.3952   -0.5811   -0.0347 O   0  0
    2.3728    1.3793   -0.0137 N   0  0
    3.6563    2.0856   -0.0221 C   0  0
   -1.9066    9.7466   -2.9702 H   0  0
   -0.2273   10.3082   -2.9786 H   0  0
   -1.5249   11.4067   -2.3034 H   0  0
   -1.4807   11.3408    0.0809 H   0  0
   -1.0705   10.1498    2.2197 H   0  0
   -0.2924    7.7924    2.1983 H   0  0
   -0.3210    7.8222   -2.1010 H   0  0
    0.8020    6.0598   -0.8708 H   0  0
    0.8202    6.0484    0.9254 H   0  0
   -2.6790    1.1680   -0.4990 H   0  0
   -2.9815    2.9386   -0.4881 H   0  0
   -3.5100    4.0339    1.4973 H   0  0
   -3.8083    3.0102    3.0763 H   0  0
   -1.8134    0.4251    2.1387 H   0  0
   -3.4254   -0.0037    1.5561 H   0  0
   -3.2574    0.7480    3.2172 H   0  0
    1.2046   -1.6782   -0.0182 H   0  0
    3.6316    2.7327    0.8671 H   0  0
    3.6144    2.7430   -0.9030 H   0  0
    4.5330    1.4214   -0.0345 H   0  0
  1  2  1  0
  2  7  2  0
  2  3  1  0
  3  4  2  0
  4  5  1  0
  5  6  2  0
  6  7  1  0
  6  8  1  0
  8  9  1  0
  9 10  1  0
 10 14  1  0
 10 11  2  0
 11 12  1  0
 12 24  1  0
 12 13  2  0
 13 14  1  0
 13 19  1  0
 14 15  1  0
 15 16  1  0
 16 17  2  0
 16 18  1  0
 19 20  2  0
 19 21  1  0
 21 22  1  0
 22 23  2  0
 22 24  1  0
 24 25  1  0
  1 26  1  0
  1 27  1  0
  1 28  1  0
  3 29  1  0
  4 30  1  0
  5 31  1  0
  7 32  1  0
  8 33  1  0
  8 34  1  0
 15 35  1  0
 15 36  1  0
 17 37  1  0
 17 38  1  0
 18 39  1  0
 18 40  1  0
 18 41  1  0
 21 42  1  0
 25 43  1  0
 25 44  1  0
 25 45  1  0
M  END
> <Name>
ZINC00622446

> <reference>
BDB50272199

> <quality>
0.713

> <status>
decoy

$$$$
ZINC03479590
  SciTegic06061311253D

 43 46  0  0  0  0            999 V2000
   -4.9787    2.5504    0.4352 C   0  0
   -3.4933    2.6628    0.2075 C   0  0
   -2.6656    1.6369   -0.0524 C   0  0
   -1.3232    2.2153   -0.1990 C   0  0
   -1.4738    3.5750   -0.0018 C   0  0
   -2.7746    3.8229    0.2332 N   0  0
   -3.3396    5.1504    0.4874 C   0  0  2  0  0  0
   -4.5655    5.5646   -0.3291 C   0  0
   -3.2029    6.1998   -0.6176 C   0  0
   -0.3719    4.6021   -0.0456 C   0  0
   -0.0798    1.4977   -0.4884 C   0  0
    0.9641    2.1084   -0.5874 O   0  0
   -0.0977    0.0018   -0.6695 C   0  0
    1.2470   -0.4678   -0.9515 O   0  0
    1.4053   -1.7926   -1.1409 C   0  0
    0.4459   -2.5350   -1.0722 O   0  0
    2.7428   -2.3412   -1.4314 C   0  0
    3.8568   -1.4927   -1.5129 C   0  0
    5.0959   -1.9752   -1.7780 C   0  0
    5.3089   -3.3595   -1.9828 C   0  0
    4.1706   -4.1974   -1.8965 C   0  0
    2.9186   -3.7146   -1.6237 C   0  0
    4.8652   -5.8013   -2.2081 S   0  0
    6.5138   -5.2996   -2.4202 C   0  0
    6.4585   -4.0069   -2.2527 N   0  0
   -5.3931    3.2472   -0.3083 H   0  0
   -5.1132    3.0357    1.4132 H   0  0
   -5.4019    1.5366    0.3794 H   0  0
   -2.9388    0.5748   -0.1383 H   0  0
   -3.0950    5.1126    1.5592 H   0  0
   -5.2159    6.2474    0.2372 H   0  0
   -4.8234    4.8056   -1.0824 H   0  0
   -2.7448    5.7753   -1.5231 H   0  0
   -3.1366    7.2162   -0.2023 H   0  0
    0.0777    4.4283   -1.0344 H   0  0
    0.3504    4.2091    0.6851 H   0  0
   -0.6680    5.6461    0.1344 H   0  0
   -0.4664   -0.4747    0.2508 H   0  0
   -0.7599   -0.2592   -1.5082 H   0  0
    3.7222   -0.4120   -1.3583 H   0  0
    5.9475   -1.2812   -1.8347 H   0  0
    2.0607   -4.3998   -1.5566 H   0  0
    7.3932   -5.9219   -2.6423 H   0  0
  1  2  1  0
  2  6  1  0
  2  3  2  0
  3  4  1  0
  4  5  2  0
  4 11  1  0
  5  6  1  0
  5 10  1  0
  6  7  1  0
  7  9  1  0
  7  8  1  0
  8  9  1  0
 11 12  2  0
 11 13  1  0
 13 14  1  0
 14 15  1  0
 15 16  2  0
 15 17  1  0
 17 22  1  0
 17 18  2  0
 18 19  1  0
 19 20  2  0
 20 25  1  0
 20 21  1  0
 21 22  2  0
 21 23  1  0
 23 24  1  0
 24 25  2  0
  1 26  1  0
  1 27  1  0
  1 28  1  0
  3 29  1  0
  7 30  1  0
  8 31  1  0
  8 32  1  0
  9 33  1  0
  9 34  1  0
 10 35  1  0
 10 36  1  0
 10 37  1  0
 13 38  1  0
 13 39  1  0
 18 40  1  0
 19 41  1  0
 22 42  1  0
 24 43  1  0
M  END
> <Name>
ZINC03479590

> <reference>
BDB50272199

> <quality>
0.713

> <status>
decoy

$$$$
ZINC14177046
  SciTegic06061311253D

 29 30  0  0  0  0            999 V2000
   -0.9034    2.3568   -0.1244 C   0  0
   -0.6754    3.6376    0.3121 C   0  0
    0.4009    3.8869    1.1066 C   0  0
    1.1366    2.3270    1.2811 S   0  0
   -0.0060    1.3788    0.2920 C   0  0
    0.0021   -0.0041    0.0020 C   0  0
    1.1873   -0.6696   -0.1154 C   0  0
    2.5176   -0.1549   -0.1512 C   0  0
    2.7292    1.0421   -0.0722 O   0  0
    3.5138   -1.0156   -0.2679 N   0  0
    3.2783   -2.3431   -0.3628 C   0  0
    4.4030   -3.6235   -0.5259 S   0  0
    1.4959   -2.4231   -0.2739 S   0  0
    4.8930   -0.5230   -0.3024 C   0  0
    5.2960   -0.2357   -1.7501 C   0  0
    6.7364    0.2788   -1.7861 C   0  0
    7.1333    0.5617   -3.2121 C   0  0
    6.3450    0.3714   -4.1077 O   0  0
    0.9137    5.4017    1.7821 Cl  0  0
    8.3627    1.0252   -3.4873 O   0  5
   -1.7572    2.1144   -0.7742 H   0  0
   -1.3546    4.4532    0.0232 H   0  0
   -0.9472   -0.5441   -0.1291 H   0  0
    4.9671    0.4018    0.2887 H   0  0
    5.5658   -1.2835    0.1207 H   0  0
    5.2226   -1.1602   -2.3417 H   0  0
    4.6249    0.5255   -2.1745 H   0  0
    7.4092   -0.4816   -1.3630 H   0  0
    6.8104    1.2036   -1.1951 H   0  0
  1  5  2  0
  1  2  1  0
  2  3  2  0
  3  4  1  0
  3 19  1  0
  4  5  1  0
  5  6  1  0
  6  7  2  0
  7 13  1  0
  7  8  1  0
  8  9  2  0
  8 10  1  0
 10 11  1  0
 10 14  1  0
 11 12  2  0
 11 13  1  0
 14 15  1  0
 15 16  1  0
 16 17  1  0
 17 18  2  0
 17 20  1  0
  1 21  1  0
  2 22  1  0
  6 23  1  0
 14 24  1  0
 14 25  1  0
 15 26  1  0
 15 27  1  0
 16 28  1  0
 16 29  1  0
M  CHG  1  20  -1
M  END
> <Name>
ZINC14177046

> <reference>
BDB50272199

> <quality>
0.710

> <status>
decoy

$$$$
ZINC16253419
  SciTegic06061311253D

 36 38  0  0  0  0            999 V2000
   -6.6474    2.6103   -1.1189 C   0  0
   -7.7313    1.7524   -1.1137 C   0  0
   -8.2631    1.3180    0.0860 C   0  0
   -7.7081    1.7377    1.2805 C   0  0
   -6.6215    2.5923    1.2752 C   0  0
   -6.0894    3.0263    0.0754 C   0  0
   -4.9048    3.9578    0.0696 C   0  0
   -3.6782    3.1809    0.0538 O   0  0
   -2.5191    3.8678    0.0468 C   0  0
   -2.5329    5.0826    0.0539 O   0  0
   -1.2329    3.1446    0.0307 C   0  0
   -1.2151    1.7473    0.0173 C   0  0
   -0.0126    1.0758    0.0080 C   0  0
    1.1824    1.7864    0.0004 C   0  0
    1.1687    3.1766    0.0084 C   0  0
   -0.0297    3.8552    0.0235 C   0  0
    2.4022    1.1005   -0.0150 N   0  0
    3.6438    1.6341   -0.0240 C   0  0
    4.4930    0.6404   -0.0366 N   0  0
    3.8739   -0.4847   -0.0362 N   0  0
    2.5990   -0.2918   -0.0181 N   0  0
   -9.4477    0.3864    0.0918 C   0  0  1  0  0  0
  -10.6295    1.1349    0.1081 F   0  0
   -9.4178   -0.4131   -1.0558 F   0  0
   -9.3954   -0.4274    1.2286 F   0  0
   -6.2289    2.9620   -2.0735 H   0  0
   -8.1706    1.4154   -2.0642 H   0  0
   -8.1311    1.3917    2.2352 H   0  0
   -6.1803    2.9270    2.2256 H   0  0
   -4.9450    4.5968   -0.8249 H   0  0
   -4.9276    4.5874    0.9713 H   0  0
   -2.1602    1.1845    0.0142 H   0  0
    0.0023   -0.0241    0.0066 H   0  0
    2.1162    3.7353    0.0027 H   0  0
   -0.0397    4.9551    0.0299 H   0  0
    3.8934    2.7054   -0.0212 H   0  0
  1  6  2  0
  1  2  1  0
  2  3  2  0
  3  4  1  0
  3 22  1  0
  4  5  2  0
  5  6  1  0
  6  7  1  0
  7  8  1  0
  8  9  1  0
  9 10  2  0
  9 11  1  0
 11 16  2  0
 11 12  1  0
 12 13  2  0
 13 14  1  0
 14 15  2  0
 14 17  1  0
 15 16  1  0
 17 21  1  0
 17 18  1  0
 18 19  2  0
 19 20  1  0
 20 21  2  0
 22 23  1  0
 22 24  1  0
 22 25  1  0
  1 26  1  0
  2 27  1  0
  4 28  1  0
  5 29  1  0
  7 30  1  0
  7 31  1  0
 12 32  1  0
 13 33  1  0
 15 34  1  0
 16 35  1  0
 18 36  1  0
M  END
> <Name>
ZINC16253419

> <reference>
BDB50272199

> <quality>
0.708

> <status>
decoy

$$$$
ZINC08061275
  SciTegic06061311253D

 36 38  0  0  0  0            999 V2000
   -0.0127    1.0858    0.0080 C   0  0
   -0.7288    1.5792    1.2668 C   0  0
    0.0000    1.0800    2.4877 C   0  0
    0.9813    1.6321    3.1733 N   0  0
    1.4887    1.0769    4.1857 N   0  0
    1.0643   -0.1005    4.6239 C   0  0
   -0.2251   -0.4286    3.4255 S   0  0
    1.4931   -0.8592    5.7061 N   0  5
    2.4922   -0.4093    6.4909 C   0  0
    3.0185    0.6613    6.2518 O   0  0
    2.9455   -1.2113    7.6349 C   0  0
    3.9278   -0.9288    8.5319 C   0  0
    4.2140   -1.8354    9.5675 C   0  0
    5.1926   -1.7197   10.5915 C   0  0
    5.3392   -2.7064   11.5309 C   0  0
    4.5431   -3.8450   11.5163 C   0  0
    3.5821   -3.9911   10.5369 C   0  0
    3.4221   -3.0077    9.5840 C   0  0
    2.3377   -2.7928    8.1948 S   0  0
    5.9859   -0.6271   10.6389 F   0  0
    4.7085    0.3550    8.4162 C   0  0
    4.0557    1.3790    9.1693 O   0  0
    4.7184    2.6444    9.1260 C   0  0
    0.0025   -0.0141    0.0009 H   0  0
    1.0194    1.4662   -0.0009 H   0  0
   -0.5442    1.4499   -0.8836 H   0  0
   -0.7433    2.6791    1.2733 H   0  0
   -1.7609    1.1988    1.2757 H   0  0
    6.1039   -2.5946   12.3137 H   0  0
    4.6780   -4.6248   12.2804 H   0  0
    2.9463   -4.8885   10.5165 H   0  0
    5.7247    0.2030    8.8090 H   0  0
    4.7650    0.6572    7.3600 H   0  0
    4.7845    2.9482    8.0708 H   0  0
    5.7386    2.4978    9.5103 H   0  0
    4.1830    3.4015    9.7178 H   0  0
  1  2  1  0
  2  3  1  0
  3  7  1  0
  3  4  2  0
  4  5  1  0
  5  6  2  0
  6  7  1  0
  6  8  1  0
  8  9  1  0
  9 10  2  0
  9 11  1  0
 11 19  1  0
 11 12  2  0
 12 13  1  0
 12 21  1  0
 13 18  1  0
 13 14  2  0
 14 15  1  0
 14 20  1  0
 15 16  2  0
 16 17  1  0
 17 18  2  0
 18 19  1  0
 21 22  1  0
 22 23  1  0
  1 24  1  0
  1 25  1  0
  1 26  1  0
  2 27  1  0
  2 28  1  0
 15 29  1  0
 16 30  1  0
 17 31  1  0
 21 32  1  0
 21 33  1  0
 23 34  1  0
 23 35  1  0
 23 36  1  0
M  CHG  1   8  -1
M  END
> <Name>
ZINC08061275

> <reference>
BDB50272199

> <quality>
0.707

> <status>
decoy

$$$$
ZINC02617861
  SciTegic06061311253D

 36 38  0  0  1  0            999 V2000
   -0.0126    1.0758    0.0080 C   0  0
   -1.2189    1.7504    0.0173 C   0  0
   -1.2374    3.1338    0.0302 C   0  0
   -0.0484    3.8411    0.0231 C   0  0
    1.1572    3.1654    0.0085 C   0  0
    1.1752    1.7831    0.0004 C   0  0
    2.4901    1.0470   -0.0161 C   0  0
    3.0013    0.7608   -1.7329 S   0  0
    4.5333   -0.0968   -1.5841 C   0  0
    5.2021   -0.4645   -0.5009 N   0  0
    6.2986   -1.0836   -0.5725 N   0  0
    6.8539   -1.3947   -1.7322 C   0  0
    5.6353   -0.7137   -2.8534 S   0  0
    8.0463   -2.0612   -2.0035 N   0  0
    8.8219   -2.4946   -0.9900 C   0  0
    8.4813   -2.3040    0.1585 O   0  0
   10.1121   -3.2158   -1.2836 C   0  0  2  0  0  0
    9.8262   -4.5781   -1.9535 C   0  0
   10.8947   -5.5214   -1.3569 C   0  0
   11.6998   -4.6173   -0.3972 C   0  0
   10.7964   -3.5426   -0.0545 O   0  0
   -2.7521    3.9817    0.0486 Cl  0  0
    0.0023   -0.0241    0.0066 H   0  0
   -2.1640    1.1876    0.0144 H   0  0
   -0.0625    4.9410    0.0291 H   0  0
    2.1026    3.7277    0.0033 H   0  0
    3.2540    1.6490    0.4978 H   0  0
    2.3774    0.0810    0.4979 H   0  0
    8.3355   -2.2229   -2.9788 H   0  0
   10.7091   -2.5534   -1.9277 H   0  0
    9.9565   -4.5004   -3.0430 H   0  0
    8.8191   -4.9289   -1.6839 H   0  0
   11.5495   -5.9053   -2.1530 H   0  0
   10.4113   -6.3340   -0.7947 H   0  0
   11.9775   -5.1807    0.5058 H   0  0
   12.5862   -4.2170   -0.9111 H   0  0
  1  6  2  0
  1  2  1  0
  2  3  2  0
  3  4  1  0
  3 22  1  0
  4  5  2  0
  5  6  1  0
  6  7  1  0
  7  8  1  0
  8  9  1  0
  9 13  1  0
  9 10  2  0
 10 11  1  0
 11 12  2  0
 12 13  1  0
 12 14  1  0
 14 15  1  0
 15 16  2  0
 15 17  1  0
 17 21  1  0
 17 18  1  0
 18 19  1  0
 19 20  1  0
 20 21  1  0
  1 23  1  0
  2 24  1  0
  4 25  1  0
  5 26  1  0
  7 27  1  0
  7 28  1  0
 14 29  1  0
 17 30  1  0
 18 31  1  0
 18 32  1  0
 19 33  1  0
 19 34  1  0
 20 35  1  0
 20 36  1  0
M  END
> <Name>
ZINC02617861

> <reference>
BDB50272199

> <quality>
0.707

> <status>
decoy

$$$$
ZINC06410676
  SciTegic06061311253D

 51 52  0  0  0  0            999 V2000
   -0.9307    5.8375   -2.9819 C   0  0
   -0.2419    4.5939   -2.4161 C   0  0  1  0  0  0
    1.1153    4.4080   -3.0975 C   0  0
   -0.0505    4.7541   -1.0090 O   0  0
   -0.0573    3.6264   -0.2540 C   0  0
   -1.2612    3.1477    0.2907 C   0  0
   -1.2537    1.9783    1.0651 C   0  0
   -0.0704    1.3143    1.2956 C   0  0
    1.1159    1.7876    0.7573 C   0  0
    1.1267    2.9380   -0.0143 C   0  0
    2.2961    3.3942   -0.5380 O   0  0
    3.4740    2.6374   -0.2519 C   0  0
   -2.5156    3.8619    0.0469 C   0  0
   -3.6989    3.1626   -0.0501 C   0  0
   -3.6858    1.7307   -0.0586 C   0  0
   -3.6754    0.5948   -0.0654 N   0  0
   -4.9759    3.8871   -0.1448 C   0  0
   -4.9870    5.1035   -0.1375 O   0  0
   -6.1333    3.2032   -0.2396 N   0  0
   -7.4049    3.9246   -0.3339 C   0  0  2  0  0  0
   -7.8975    4.2756    1.0715 C   0  0
   -9.2255    5.0291    0.9730 C   0  0
  -10.2621    4.1465    0.2748 C   0  0
   -9.7694    3.7955   -1.1305 C   0  0
   -8.4414    3.0420   -1.0320 C   0  0
   -1.0787    5.7151   -4.0650 H   0  0
   -0.3036    6.7219   -2.7958 H   0  0
   -1.9066    5.9717   -2.4924 H   0  0
   -0.8698    3.7102   -2.6025 H   0  0
    1.7441    5.2912   -2.9115 H   0  0
    0.9690    4.2844   -4.1807 H   0  0
    1.6110    3.5141   -2.6911 H   0  0
   -2.1929    1.5921    1.4879 H   0  0
   -0.0661    0.4024    1.9108 H   0  0
    2.0550    1.2461    0.9440 H   0  0
    3.2823    1.6174   -0.6163 H   0  0
    3.5553    2.5943    0.8442 H   0  0
    4.3775    3.0676   -0.7085 H   0  0
   -2.5135    4.9568   -0.0589 H   0  0
   -6.1238    2.1733   -0.2458 H   0  0
   -7.2603    4.8485   -0.9132 H   0  0
   -7.1530    4.9104    1.5743 H   0  0
   -8.0428    3.3518    1.6506 H   0  0
   -9.5801    5.2810    1.9833 H   0  0
   -9.0820    5.9531    0.3937 H   0  0
  -11.2173    4.6874    0.2032 H   0  0
  -10.4065    3.2223    0.8536 H   0  0
  -10.5143    3.1605   -1.6324 H   0  0
   -9.6241    4.7188   -1.7106 H   0  0
   -8.0876    2.7900   -2.0426 H   0  0
   -8.5871    2.1179   -0.4534 H   0  0
  1  2  1  0
  2  3  1  0
  2  4  1  0
  4  5  1  0
  5 10  2  0
  5  6  1  0
  6  7  2  0
  6 13  1  0
  7  8  1  0
  8  9  2  0
  9 10  1  0
 10 11  1  0
 11 12  1  0
 13 14  2  0
 14 15  1  0
 14 17  1  0
 15 16  3  0
 17 18  2  0
 17 19  1  0
 19 20  1  0
 20 25  1  0
 20 21  1  0
 21 22  1  0
 22 23  1  0
 23 24  1  0
 24 25  1  0
  1 26  1  0
  1 27  1  0
  1 28  1  0
  2 29  1  0
  3 30  1  0
  3 31  1  0
  3 32  1  0
  7 33  1  0
  8 34  1  0
  9 35  1  0
 12 36  1  0
 12 37  1  0
 12 38  1  0
 13 39  1  0
 19 40  1  0
 20 41  1  0
 21 42  1  0
 21 43  1  0
 22 44  1  0
 22 45  1  0
 23 46  1  0
 23 47  1  0
 24 48  1  0
 24 49  1  0
 25 50  1  0
 25 51  1  0
M  END
> <Name>
ZINC06410676

> <reference>
BDB50272199

> <quality>
0.705

> <status>
decoy

$$$$
ZINC10311665
  SciTegic06061311253D

 41 44  0  0  0  0            999 V2000
   -4.3445   11.9152    1.2483 C   0  0
   -5.2913   10.7410    1.5045 C   0  0
   -4.5910    9.5117    1.3031 O   0  0
   -5.2926    8.3644    1.4914 C   0  0
   -6.6284    8.4179    1.8569 C   0  0
   -7.3395    7.2498    2.0546 C   0  0
   -6.7266    6.0205    1.8831 C   0  0
   -5.3994    5.9509    1.5139 C   0  0
   -4.6711    7.1233    1.3119 C   0  0
   -3.2479    7.0552    0.9159 C   0  0
   -2.5017    5.9999    0.7073 N   0  0
   -1.1708    6.1243    0.3314 N   0  0
   -0.0758    5.3258    0.0319 C   0  0
    0.9334    6.1187   -0.2481 N   0  0
    0.5664    7.3484   -0.1449 N   0  0
   -0.6857    7.4022    0.2035 C   0  0
   -2.1059    8.3915    0.5995 S   0  0
   -0.0514    3.8484    0.0232 C   0  0
   -1.2475    3.1276    0.0308 C   0  0
   -1.2209    1.7484    0.0174 C   0  0
   -0.0126    1.0758    0.0080 C   0  0
    1.1817    1.7837    0.0004 C   0  0
    1.1667    3.1684    0.0079 C   0  0
    2.3661    1.1174   -0.0150 O   0  0
    2.3072   -0.3104   -0.0225 C   0  0
   -3.9745   11.8701    0.2134 H   0  0
   -3.4941   11.8603    1.9438 H   0  0
   -4.8830   12.8618    1.4032 H   0  0
   -5.6606   10.7867    2.5397 H   0  0
   -6.1418   10.7958    0.8090 H   0  0
   -7.1231    9.3914    1.9898 H   0  0
   -8.3981    7.2970    2.3498 H   0  0
   -7.3003    5.0955    2.0419 H   0  0
   -4.9159    4.9721    1.3789 H   0  0
   -2.2103    3.6593    0.0475 H   0  0
   -2.1638    1.1819    0.0142 H   0  0
    0.0023   -0.0241    0.0065 H   0  0
    2.1123    3.7304    0.0018 H   0  0
    1.7172   -0.5910   -0.9075 H   0  0
    1.7347   -0.6010    0.8707 H   0  0
    3.3031   -0.7772   -0.0349 H   0  0
  1  2  1  0
  2  3  1  0
  3  4  1  0
  4  9  2  0
  4  5  1  0
  5  6  2  0
  6  7  1  0
  7  8  2  0
  8  9  1  0
  9 10  1  0
 10 17  1  0
 10 11  2  0
 11 12  1  0
 12 16  1  0
 12 13  1  0
 13 14  2  0
 13 18  1  0
 14 15  1  0
 15 16  2  0
 16 17  1  0
 18 23  2  0
 18 19  1  0
 19 20  2  0
 20 21  1  0
 21 22  2  0
 22 23  1  0
 22 24  1  0
 24 25  1  0
  1 26  1  0
  1 27  1  0
  1 28  1  0
  2 29  1  0
  2 30  1  0
  5 31  1  0
  6 32  1  0
  7 33  1  0
  8 34  1  0
 19 35  1  0
 20 36  1  0
 21 37  1  0
 23 38  1  0
 25 39  1  0
 25 40  1  0
 25 41  1  0
M  END
> <Name>
ZINC10311665

> <reference>
BDB50272199

> <quality>
0.704

> <status>
decoy

$$$$
ZINC14183118
  SciTegic06061311253D

 44 47  0  0  0  0            999 V2000
    5.5455    2.4794   -0.0198 C   0  0
    4.1430    2.2056   -0.0136 O   0  0
    3.3061    3.2752   -0.0065 C   0  0
    3.8216    4.5620   -0.0103 C   0  0
    2.9691    5.6490    0.0032 C   0  0
    1.5978    5.4612    0.0148 C   0  0
    1.0710    4.1859    0.0134 C   0  0
    1.9214    3.0824   -0.0002 C   0  0
    1.3603    1.7094   -0.0017 C   0  0
   -0.0163    1.3479    0.0095 C   0  0
    0.0021   -0.0041    0.0020 C   0  0
    1.2914   -0.3717   -0.0123 O   0  0
    2.0317    0.5842   -0.0142 N   0  0
   -1.1946   -0.9201    0.0081 C   0  0
   -1.6893   -1.2776   -1.6959 S   0  0
   -3.0667   -2.3356   -1.3990 C   0  0
   -3.5301   -2.7043   -0.2244 N   0  0
   -4.5446   -3.4792   -0.3642 N   0  0
   -4.8009   -3.6606   -1.6144 N   0  0
   -3.8510   -2.9174   -2.3368 N   0  0
   -3.7334   -2.7999   -3.7923 C   0  0  2  0  0  0
   -5.0452   -2.2458   -4.3855 C   0  0
   -5.2086   -3.0099   -5.7238 C   0  0
   -4.7090   -4.4325   -5.3692 C   0  0
   -3.5193   -4.1895   -4.4177 C   0  0
    5.7445    3.0946    0.8701 H   0  0
    5.7357    3.0995   -0.9082 H   0  0
    6.1573    1.5653   -0.0254 H   0  0
    4.9104    4.7177   -0.0241 H   0  0
    3.3820    6.6686    0.0047 H   0  0
    0.9255    6.3318    0.0252 H   0  0
   -0.0193    4.0406    0.0230 H   0  0
   -0.8918    2.0137    0.0215 H   0  0
   -0.9351   -1.8593    0.5186 H   0  0
   -2.0277   -0.4334    0.5365 H   0  0
   -2.8865   -2.1322   -4.0091 H   0  0
   -4.9498   -1.1666   -4.5760 H   0  0
   -5.8885   -2.4713   -3.7162 H   0  0
   -6.2680   -3.0409   -6.0183 H   0  0
   -4.5683   -2.5640   -6.4992 H   0  0
   -4.3671   -4.9517   -6.2767 H   0  0
   -5.5002   -4.9929   -4.8497 H   0  0
   -3.5093   -4.9572   -3.6300 H   0  0
   -2.5781   -4.2020   -4.9869 H   0  0
  1  2  1  0
  2  3  1  0
  3  8  2  0
  3  4  1  0
  4  5  2  0
  5  6  1  0
  6  7  2  0
  7  8  1  0
  8  9  1  0
  9 13  2  0
  9 10  1  0
 10 11  2  0
 11 12  1  0
 11 14  1  0
 12 13  1  0
 14 15  1  0
 15 16  1  0
 16 20  1  0
 16 17  2  0
 17 18  1  0
 18 19  2  0
 19 20  1  0
 20 21  1  0
 21 25  1  0
 21 22  1  0
 22 23  1  0
 23 24  1  0
 24 25  1  0
  1 26  1  0
  1 27  1  0
  1 28  1  0
  4 29  1  0
  5 30  1  0
  6 31  1  0
  7 32  1  0
 10 33  1  0
 14 34  1  0
 14 35  1  0
 21 36  1  0
 22 37  1  0
 22 38  1  0
 23 39  1  0
 23 40  1  0
 24 41  1  0
 24 42  1  0
 25 43  1  0
 25 44  1  0
M  END
> <Name>
ZINC14183118

> <reference>
BDB50272199

> <quality>
0.704

> <status>
decoy

$$$$
ZINC17267834
  SciTegic06061311253D

 44 47  0  0  1  0            999 V2000
    9.3649    0.4945    6.9537 C   0  0
    9.4284    1.6088    5.8903 C   0  0
    8.1144    1.5083    5.1145 C   0  0
    7.2425    0.7884    5.8444 C   0  0
    5.7609    0.7469    4.8658 S   0  0
    6.2992    1.6631    3.4997 C   0  0
    7.6025    1.9872    3.8315 C   0  0
    8.4208    2.7644    2.9500 C   0  0
    9.0700    3.3809    2.2508 N   0  0
    5.5928    1.9968    2.3524 N   0  0
    4.3174    1.5872    2.2033 C   0  0
    3.7870    0.9271    3.0716 O   0  0
    3.5505    1.9495    0.9577 C   0  0
    2.2106    1.3955    1.0360 O   0  0
    1.3929    1.6293   -0.0025 C   0  0
    1.7837    2.2754   -0.9457 O   0  0
   -0.0127    1.0858    0.0080 C   0  0  1  0  0  0
   -0.9085    1.8897   -0.9619 C   0  0
   -1.3918    0.8427   -2.0116 C   0  0  1  0  0  0
   -0.1207    0.5206   -2.8553 C   0  0
    0.7919   -0.2789   -1.8974 C   0  0
   -0.0361   -0.3716   -0.5457 C   0  0  2  0  0  0
   -1.5013   -0.4395   -1.1131 C   0  0
    7.8412    0.3291    7.1462 C   0  0
    9.8350    0.8313    7.8894 H   0  0
    9.8056   -0.4340    6.5616 H   0  0
    9.5014    2.5914    6.3794 H   0  0
   10.2780    1.4357    5.2134 H   0  0
    6.0432    2.5574    1.6150 H   0  0
    3.4895    3.0443    0.8699 H   0  0
    4.0652    1.5391    0.0765 H   0  0
   -0.3679    1.1425    1.0475 H   0  0
   -0.3200    2.6758   -1.4576 H   0  0
   -1.7709    2.3072   -0.4215 H   0  0
   -2.2734    1.1368   -2.6001 H   0  0
    0.3774    1.4528   -3.1601 H   0  0
   -0.3908   -0.0986   -3.7234 H   0  0
    0.9713   -1.2871   -2.2990 H   0  0
    1.7322    0.2657   -1.7262 H   0  0
    0.2886   -1.1520    0.1583 H   0  0
   -1.6404   -1.3401   -1.7291 H   0  0
   -2.2387   -0.2934   -0.3100 H   0  0
    7.5958   -0.7286    7.3227 H   0  0
    7.4922    0.9699    7.9694 H   0  0
  1 24  1  0
  1  2  1  0
  2  3  1  0
  3  7  1  0
  3  4  2  0
  4  5  1  0
  4 24  1  0
  5  6  1  0
  6  7  2  0
  6 10  1  0
  7  8  1  0
  8  9  3  0
 10 11  1  0
 11 12  2  0
 11 13  1  0
 13 14  1  0
 14 15  1  0
 15 16  2  0
 15 17  1  0
 17 22  1  0
 17 18  1  0
 18 19  1  0
 19 23  1  0
 19 20  1  0
 20 21  1  0
 21 22  1  0
 22 23  1  0
  1 25  1  0
  1 26  1  0
  2 27  1  0
  2 28  1  0
 10 29  1  0
 13 30  1  0
 13 31  1  0
 17 32  1  0
 18 33  1  0
 18 34  1  0
 19 35  1  0
 20 36  1  0
 20 37  1  0
 21 38  1  0
 21 39  1  0
 22 40  1  0
 23 41  1  0
 23 42  1  0
 24 43  1  0
 24 44  1  0
M  END
> <Name>
ZINC17267834

> <reference>
BDB50272199

> <quality>
0.703

> <status>
decoy

$$$$
ZINC24730193
  SciTegic06061311253D

 35 37  0  0  0  0            999 V2000
   -2.3860    4.3916    0.0485 C   0  0
   -1.1905    3.4742    0.0322 C   0  0
   -1.1582    2.1617    0.0192 N   0  0
   -0.0184    1.5028    0.0103 C   0  0
    1.1379    2.2138    0.0031 C   0  0
    0.4975    3.8821    0.0182 S   0  0
    0.0021   -0.0041    0.0020 C   0  0
   -0.7948   -0.5237    1.1708 C   0  0
   -1.3250    0.2502    1.9323 O   0  0
   -0.9157   -1.8462    1.3657 O   0  0
   -1.6978   -2.2749    2.5116 C   0  0
   -1.7220   -3.7806    2.5683 C   0  0
   -0.8657   -4.5494    3.1938 N   0  0
   -1.2832   -5.8158    2.9694 C   0  0
   -2.3580   -5.7423    2.2281 N   0  0
   -2.6247   -4.5823    1.9946 O   0  0
   -0.6416   -7.0567    3.4702 C   0  0
    0.5108   -6.9821    4.2499 C   0  0
    1.1004   -8.1385    4.7180 C   0  0
    0.5556   -9.3720    4.4041 C   0  0
   -0.5863   -9.4515    3.6254 C   0  0
   -1.1864   -8.3005    3.1574 C   0  0
    1.3065  -10.8237    4.9895 Cl  0  0
   -2.1472    5.0312   -0.8140 H   0  0
   -2.1307    5.0221    0.9130 H   0  0
   -3.4027    3.9718    0.0560 H   0  0
    2.1797    1.8610   -0.0087 H   0  0
    1.0406   -0.3582    0.0808 H   0  0
   -0.4406   -0.3718   -0.9354 H   0  0
   -1.2444   -1.8811    3.4332 H   0  0
   -2.7261   -1.8957    2.4177 H   0  0
    0.9498   -6.0030    4.4919 H   0  0
    2.0047   -8.0802    5.3416 H   0  0
   -1.0159  -10.4338    3.3794 H   0  0
   -2.0934   -8.3647    2.5384 H   0  0
  1  2  1  0
  2  6  1  0
  2  3  2  0
  3  4  1  0
  4  5  2  0
  4  7  1  0
  5  6  1  0
  7  8  1  0
  8  9  2  0
  8 10  1  0
 10 11  1  0
 11 12  1  0
 12 16  1  0
 12 13  2  0
 13 14  1  0
 14 15  2  0
 14 17  1  0
 15 16  1  0
 17 22  2  0
 17 18  1  0
 18 19  2  0
 19 20  1  0
 20 21  2  0
 20 23  1  0
 21 22  1  0
  1 24  1  0
  1 25  1  0
  1 26  1  0
  5 27  1  0
  7 28  1  0
  7 29  1  0
 11 30  1  0
 11 31  1  0
 18 32  1  0
 19 33  1  0
 21 34  1  0
 22 35  1  0
M  END
> <Name>
ZINC24730193

> <reference>
BDB50272199

> <quality>
0.702

> <status>
decoy

$$$$
ZINC16574737
  SciTegic06061311253D

 43 46  0  0  0  0            999 V2000
  -10.3725   -3.1570    0.0906 C   0  0
   -9.3438   -4.1486    0.0735 O   0  0
   -8.0632   -3.7063    0.0631 C   0  0
   -7.0199   -4.6271    0.0463 C   0  0
   -5.7264   -4.1775    0.0354 C   0  0
   -5.4996   -2.7928    0.0416 C   0  0
   -6.5950   -1.9276    0.0639 C   0  0
   -7.8227   -2.4040    0.0686 N   0  0
   -4.1247   -2.2594    0.0308 C   0  0
   -3.1778   -3.0207    0.0165 O   0  0
   -3.9185   -0.9279    0.0368 O   0  0
   -2.5391   -0.4744    0.0255 C   0  0
   -2.5056    1.0322    0.0344 C   0  0
   -3.6541    1.7550    0.0506 C   0  0
   -3.5954    3.1656    0.0581 C   0  0
   -4.6332    3.8026    0.0732 O   0  0
   -2.4252    3.8224    0.0495 O   0  0
   -1.2470    3.1634    0.0333 C   0  0
   -1.2315    1.7574    0.0174 C   0  0
   -0.0126    1.0758    0.0080 C   0  0
    1.1644    1.7766    0.0005 C   0  0
    1.1534    3.1645    0.0074 C   0  0
   -0.0445    3.8550    0.0238 C   0  0
    2.5761    3.6845   -0.0044 C   0  0
    3.4485    2.4859    0.4238 C   0  0
    2.5943    1.2782   -0.0157 C   0  0
  -10.2096   -2.5269   -0.7962 H   0  0
  -10.1912   -2.5385    0.9820 H   0  0
  -11.3827   -3.5923    0.0982 H   0  0
   -7.2323   -5.7064    0.0418 H   0  0
   -4.8847   -4.8855    0.0221 H   0  0
   -6.4314   -0.8399    0.0776 H   0  0
   -2.0197   -0.8574    0.9163 H   0  0
   -2.0371   -0.8462   -0.8799 H   0  0
   -4.6278    1.2434    0.0579 H   0  0
    0.0023   -0.0241    0.0066 H   0  0
   -0.0439    4.9550    0.0293 H   0  0
    2.6845    4.5054    0.7198 H   0  0
    2.8517    4.0058   -1.0197 H   0  0
    4.4042    2.4953   -0.1207 H   0  0
    3.5827    2.4806    1.5156 H   0  0
    2.7140    0.4527    0.7014 H   0  0
    2.8757    0.9699   -1.0334 H   0  0
  1  2  1  0
  2  3  1  0
  3  8  2  0
  3  4  1  0
  4  5  2  0
  5  6  1  0
  6  7  2  0
  6  9  1  0
  7  8  1  0
  9 10  2  0
  9 11  1  0
 11 12  1  0
 12 13  1  0
 13 19  1  0
 13 14  2  0
 14 15  1  0
 15 16  2  0
 15 17  1  0
 17 18  1  0
 18 23  2  0
 18 19  1  0
 19 20  2  0
 20 21  1  0
 21 26  1  0
 21 22  2  0
 22 23  1  0
 22 24  1  0
 24 25  1  0
 25 26  1  0
  1 27  1  0
  1 28  1  0
  1 29  1  0
  4 30  1  0
  5 31  1  0
  7 32  1  0
 12 33  1  0
 12 34  1  0
 14 35  1  0
 20 36  1  0
 23 37  1  0
 24 38  1  0
 24 39  1  0
 25 40  1  0
 25 41  1  0
 26 42  1  0
 26 43  1  0
M  END
> <Name>
ZINC16574737

> <reference>
BDB50272199

> <quality>
0.702

> <status>
decoy

$$$$
ZINC29145434
  SciTegic06061311253D

 60 62  0  0  1  0            999 V2000
   -8.0146    3.2438    1.6434 C   0  0
   -7.5772    2.8453    0.2325 C   0  0  2  0  0  0
   -6.0787    2.6895    0.1964 C   0  0
   -5.2016    3.6534    0.1941 N   0  0
   -4.0118    3.1690    0.1589 N   0  0
   -4.0635    1.8572    0.1366 C   0  0
   -5.3860    1.5087    0.1546 N   0  0
   -5.9215    0.2117    0.1370 C   0  0
   -6.6812   -0.2117   -0.9447 C   0  0
   -7.2022   -1.4907   -0.9632 C   0  0
   -6.9774   -2.3463    0.1022 C   0  0
   -6.2244   -1.9236    1.1848 C   0  0
   -5.6967   -0.6473    1.2038 C   0  0
   -7.4928   -3.5949    0.0852 F   0  0
   -2.6898    0.7550    0.0854 S   0  0
   -1.3292    1.9486    0.0764 C   0  0
   -0.0151    1.2121    0.0333 C   0  0
    0.0000   -0.0022    0.0107 O   0  0
    1.1977    1.9334    0.0131 C   0  0
    2.4360    1.2727    0.0906 C   0  0
    3.5829    2.0138    0.0631 N   0  0
    3.5465    3.3525   -0.0259 C   0  0
    4.5952    3.9668   -0.0423 O   0  0
    2.3941    4.0382   -0.0981 N   0  0
    1.2064    3.3988   -0.0832 C   0  0
    0.1637    4.0234   -0.1488 O   0  0
    4.8786    1.3343    0.1387 C   0  0
    5.2955    1.1926    1.6040 C   0  0
    4.3769    0.3312    2.2793 O   0  0
    4.6772    0.1308    3.6620 C   0  0
    2.4912   -0.0833    0.1871 N   0  0
   -7.9842    3.8878   -0.7191 N   0  0
   -7.4985    3.5844   -2.0719 C   0  0
   -9.4421    4.0677   -0.7111 C   0  0
   -7.5408    4.1973    1.9197 H   0  0
   -7.7105    2.4636    2.3568 H   0  0
   -9.1084    3.3577    1.6705 H   0  0
   -8.0517    1.8919   -0.0430 H   0  0
   -6.8682    0.4710   -1.7867 H   0  0
   -7.7961   -1.8299   -1.8247 H   0  0
   -6.0464   -2.6047    2.0301 H   0  0
   -5.0986   -0.3118    2.0639 H   0  0
   -1.3740    2.5642    0.9869 H   0  0
   -1.4152    2.5961   -0.8086 H   0  0
    2.4174    5.0657   -0.1657 H   0  0
    5.6347    1.9229   -0.4015 H   0  0
    4.7966    0.3364   -0.3168 H   0  0
    6.3069    0.7635    1.6577 H   0  0
    5.2907    2.1818    2.0850 H   0  0
    4.6812    1.1181    4.1469 H   0  0
    5.6912   -0.2911    3.7233 H   0  0
    3.9465   -0.5371    4.1416 H   0  0
    1.6173   -0.6282    0.2033 H   0  0
    3.4008   -0.5633    0.2437 H   0  0
   -7.9122    2.6158   -2.3892 H   0  0
   -6.4008    3.5167   -2.0486 H   0  0
   -7.8104    4.3726   -2.7730 H   0  0
   -9.7596    4.3519    0.3030 H   0  0
   -9.9193    3.1149   -0.9839 H   0  0
   -9.7320    4.8504   -1.4275 H   0  0
  1  2  1  0
  2  3  1  0
  2 32  1  0
  3  7  1  0
  3  4  2  0
  4  5  1  0
  5  6  2  0
  6  7  1  0
  6 15  1  0
  7  8  1  0
  8 13  2  0
  8  9  1  0
  9 10  2  0
 10 11  1  0
 11 12  2  0
 11 14  1  0
 12 13  1  0
 15 16  1  0
 16 17  1  0
 17 18  2  0
 17 19  1  0
 19 25  1  0
 19 20  2  0
 20 21  1  0
 20 31  1  0
 21 22  1  0
 21 27  1  0
 22 23  2  0
 22 24  1  0
 24 25  1  0
 25 26  2  0
 27 28  1  0
 28 29  1  0
 29 30  1  0
 32 33  1  0
 32 34  1  0
  1 35  1  0
  1 36  1  0
  1 37  1  0
  2 38  1  0
  9 39  1  0
 10 40  1  0
 12 41  1  0
 13 42  1  0
 16 43  1  0
 16 44  1  0
 24 45  1  0
 27 46  1  0
 27 47  1  0
 28 48  1  0
 28 49  1  0
 30 50  1  0
 30 51  1  0
 30 52  1  0
 31 53  1  0
 31 54  1  0
 33 55  1  0
 33 56  1  0
 33 57  1  0
 34 58  1  0
 34 59  1  0
 34 60  1  0
M  END
> <Name>
ZINC29145434

> <reference>
BDB50021143

> <quality>
0.880

> <status>
decoy

$$$$
ZINC05889184
  SciTegic06061311253D

 75 76  0  0  0  0            999 V2000
   -5.3544    6.0389    1.4904 C   0  0
   -4.7516    6.2576    0.1688 N   0  3  2  0  0  0
   -4.3632    7.6680    0.0350 C   0  0
   -5.7260    5.9169   -0.8764 C   0  0
   -3.5627    5.4067    0.0260 C   0  0
   -3.9616    3.9596    0.1597 C   0  0
   -5.1308    3.6620    0.2858 O   0  0
   -3.0194    2.9962    0.1391 N   0  0
   -3.3903    1.6509    0.2634 N   0  0
   -2.5081    0.7305    0.1486 C   0  0
   -1.0536    1.0953   -0.0008 C   0  0
   -0.7438    1.3636   -1.4749 C   0  0
    0.6992    1.8534   -1.6119 C   0  0
    1.0043    2.1176   -3.0638 C   0  0
    0.1514    1.9324   -3.9062 O   0  0
    2.2247    2.5598   -3.4263 N   0  0
    2.4800    2.8951   -4.7626 C   0  0
    1.7543    2.2942   -5.7805 C   0  0
    2.0064    2.6309   -7.1014 C   0  0
    2.9896    3.5609   -7.4058 C   0  0
    3.7174    4.1576   -6.3933 C   0  0
    3.4667    3.8282   -5.0714 C   0  0
    4.1836    4.4160   -4.0756 O   0  0
    5.1796    5.3636   -4.4655 C   0  0
    1.2926    2.0455   -8.0997 O   0  0
    1.6083    2.4355   -9.4377 C   0  0
   -2.9240   -0.7179    0.1627 C   0  0
   -4.4198   -0.8095    0.3223 C   0  0
   -5.0828    0.2019    0.4154 O   0  0
   -5.0746   -2.1234    0.3651 C   0  0
   -4.3119   -3.2920    0.2520 C   0  0
   -4.9276   -4.5225    0.2992 C   0  0
   -6.3063   -4.6083    0.4459 C   0  0
   -7.0739   -3.4486    0.5529 C   0  0
   -6.4644   -2.2108    0.5133 C   0  0
   -8.4234   -3.5374    0.6968 O   0  0
   -9.1470   -2.3096    0.8010 C   0  0
   -6.9083   -5.8244    0.4855 O   0  0
   -6.2450    6.6755    1.5982 H   0  0
   -4.6254    6.2936    2.2737 H   0  0
   -5.6455    4.9829    1.5912 H   0  0
   -3.6333    7.9241    0.8171 H   0  0
   -5.2529    8.3061    0.1415 H   0  0
   -3.9117    7.8324   -0.9545 H   0  0
   -6.6166    6.5538   -0.7705 H   0  0
   -6.0173    4.8608   -0.7773 H   0  0
   -5.2752    6.0805   -1.8664 H   0  0
   -2.8334    5.6592    0.8099 H   0  0
   -3.1101    5.5718   -0.9629 H   0  0
   -2.0267    3.2489    0.0320 H   0  0
   -0.4275    0.2658    0.3596 H   0  0
   -0.8397    1.9991    0.5886 H   0  0
   -0.8717    0.4356   -2.0514 H   0  0
   -1.4294    2.1324   -1.8608 H   0  0
    1.3864    1.0853   -1.2275 H   0  0
    0.8277    2.7817   -1.0360 H   0  0
    2.9698    2.6513   -2.7210 H   0  0
    0.9796    1.5513   -5.5399 H   0  0
    3.1905    3.8240   -8.4548 H   0  0
    4.4964    4.8948   -6.6376 H   0  0
    4.6587    6.1376   -5.0483 H   0  0
    5.8627    4.8324   -5.1447 H   0  0
    5.7158    5.7949   -3.6073 H   0  0
    2.6782    2.2216   -9.5779 H   0  0
    1.4737    3.5263   -9.4818 H   0  0
    0.9905    1.9204  -10.1880 H   0  0
   -2.4342   -1.2330    1.0022 H   0  0
   -2.6269   -1.1941   -0.7833 H   0  0
   -3.2211   -3.2270    0.1255 H   0  0
   -4.3262   -5.4402    0.2205 H   0  0
   -7.0687   -1.2955    0.5979 H   0  0
   -8.9121   -1.7343   -0.1067 H   0  0
   -8.7212   -1.7718    1.6609 H   0  0
  -10.2304   -2.4625    0.9148 H   0  0
   -6.4649   -6.3051    1.2288 H   0  0
  1  2  1  0
  2  3  1  0
  2  4  1  0
  2  5  1  0
  5  6  1  0
  6  7  2  0
  6  8  1  0
  8  9  1  0
  9 10  2  0
 10 11  1  0
 10 27  1  0
 11 12  1  0
 12 13  1  0
 13 14  1  0
 14 15  2  0
 14 16  1  0
 16 17  1  0
 17 22  2  0
 17 18  1  0
 18 19  2  0
 19 20  1  0
 19 25  1  0
 20 21  2  0
 21 22  1  0
 22 23  1  0
 23 24  1  0
 25 26  1  0
 27 28  1  0
 28 29  2  0
 28 30  1  0
 30 35  2  0
 30 31  1  0
 31 32  2  0
 32 33  1  0
 33 34  2  0
 33 38  1  0
 34 35  1  0
 34 36  1  0
 36 37  1  0
  1 39  1  0
  1 40  1  0
  1 41  1  0
  3 42  1  0
  3 43  1  0
  3 44  1  0
  4 45  1  0
  4 46  1  0
  4 47  1  0
  5 48  1  0
  5 49  1  0
  8 50  1  0
 11 51  1  0
 11 52  1  0
 12 53  1  0
 12 54  1  0
 13 55  1  0
 13 56  1  0
 16 57  1  0
 18 58  1  0
 20 59  1  0
 21 60  1  0
 24 61  1  0
 24 62  1  0
 24 63  1  0
 26 64  1  0
 26 65  1  0
 26 66  1  0
 27 67  1  0
 27 68  1  0
 31 69  1  0
 32 70  1  0
 35 71  1  0
 37 72  1  0
 37 73  1  0
 37 74  1  0
 38 75  1  0
M  CHG  1   2   1
M  END
> <Name>
ZINC05889184

> <reference>
BDB50021143

> <quality>
0.864

> <status>
decoy

$$$$
ZINC31430704
  SciTegic06061311253D

 64 65  0  0  0  0            999 V2000
   -8.6507   -8.5662   -0.9118 C   0  0
   -7.6250   -7.4332   -0.8410 C   0  0
   -6.2350   -8.0189   -0.5843 C   0  0
   -5.2528   -6.9340   -0.5166 N   0  0
   -3.9530   -7.2145   -0.2967 C   0  0
   -3.5804   -8.3720   -0.2461 O   0  0
   -2.9877   -6.1249   -0.1186 C   0  0
   -3.2825   -4.7795   -0.0509 C   0  0
   -2.0682   -4.0992    0.1198 C   0  0
   -1.0757   -5.0270    0.1604 C   0  0
   -1.6250   -6.2613    0.0163 N   0  0
   -0.8885   -7.5276    0.0058 C   0  0
   -1.9068   -2.7066    0.2346 N   0  0
   -2.9824   -1.8966    0.1769 C   0  0
   -4.1012   -2.3733    0.1237 O   0  0
   -2.8049   -0.4409    0.1782 C   0  0
   -1.6023    0.2324    0.1330 C   0  0
   -1.8959    1.6034    0.1554 C   0  0
   -3.2475    1.7368    0.2045 C   0  0
   -3.8087    0.4996    0.2187 N   0  0
   -5.2447    0.2139    0.2688 C   0  0
   -0.9592    2.6530    0.1262 N   0  0
    0.3594    2.3783    0.0777 C   0  0
    0.7386    1.2262    0.0593 O   0  0
    1.3623    3.5024    0.0401 C   0  0
    2.7768    2.9221   -0.0187 C   0  0
    3.7518    4.0149   -0.0553 N   0  0
    5.0702    3.7402   -0.1093 C   0  0
    5.4500    2.5864   -0.1277 O   0  0
    5.9672    4.7456   -0.1430 N   0  0
    7.4002    4.4470   -0.2017 C   0  0
    7.8408    4.3469   -1.6635 C   0  0
    9.6045    3.9794   -1.7358 Cl  0  0
    5.5639    5.9708   -0.1234 N   0  0
    6.3745    6.8793   -0.1538 O   0  0
   -8.6560   -9.1174    0.0401 H   0  0
   -8.3856   -9.2516   -1.7303 H   0  0
   -9.6503   -8.1458   -1.0963 H   0  0
   -7.6202   -6.8827   -1.7933 H   0  0
   -7.8901   -6.7477   -0.0226 H   0  0
   -6.2390   -8.5691    0.3682 H   0  0
   -5.9677   -8.7039   -1.4024 H   0  0
   -5.5556   -5.9569   -0.6371 H   0  0
   -4.2821   -4.3254   -0.1181 H   0  0
   -0.0042   -4.8137    0.2888 H   0  0
   -1.2056   -7.9824   -0.9442 H   0  0
   -1.3902   -8.1042    0.7969 H   0  0
    0.2030   -7.4622    0.1261 H   0  0
   -0.9666   -2.3059    0.3628 H   0  0
   -0.6010   -0.2208    0.0879 H   0  0
   -3.7967    2.6896    0.2288 H   0  0
   -5.3287   -0.4434    1.1468 H   0  0
   -5.3916   -0.4350   -0.6072 H   0  0
   -5.9179    1.0834    0.2971 H   0  0
   -1.2812    3.6312    0.1419 H   0  0
    1.1840    4.1234   -0.8502 H   0  0
    1.2572    4.1194    0.9447 H   0  0
    2.9559    2.3013    0.8715 H   0  0
    2.8841    2.3055   -0.9233 H   0  0
    3.4298    4.9931   -0.0398 H   0  0
    7.9630    5.2504    0.2961 H   0  0
    7.5979    3.4916    0.3063 H   0  0
    7.6449    5.3019   -2.1729 H   0  0
    7.2787    3.5433   -2.1619 H   0  0
  1  2  1  0
  2  3  1  0
  3  4  1  0
  4  5  1  0
  5  6  2  0
  5  7  1  0
  7 11  1  0
  7  8  2  0
  8  9  1  0
  9 10  2  0
  9 13  1  0
 10 11  1  0
 11 12  1  0
 13 14  1  0
 14 15  2  0
 14 16  1  0
 16 20  1  0
 16 17  2  0
 17 18  1  0
 18 19  2  0
 18 22  1  0
 19 20  1  0
 20 21  1  0
 22 23  1  0
 23 24  2  0
 23 25  1  0
 25 26  1  0
 26 27  1  0
 27 28  1  0
 28 29  2  0
 28 30  1  0
 30 31  1  0
 30 34  1  0
 31 32  1  0
 32 33  1  0
 34 35  2  0
  1 36  1  0
  1 37  1  0
  1 38  1  0
  2 39  1  0
  2 40  1  0
  3 41  1  0
  3 42  1  0
  4 43  1  0
  8 44  1  0
 10 45  1  0
 12 46  1  0
 12 47  1  0
 12 48  1  0
 13 49  1  0
 17 50  1  0
 19 51  1  0
 21 52  1  0
 21 53  1  0
 21 54  1  0
 22 55  1  0
 25 56  1  0
 25 57  1  0
 26 58  1  0
 26 59  1  0
 27 60  1  0
 31 61  1  0
 31 62  1  0
 32 63  1  0
 32 64  1  0
M  END
> <Name>
ZINC31430704

> <reference>
BDB50021143

> <quality>
0.862

> <status>
decoy

$$$$
ZINC24709825
  SciTegic06061311253D

 66 67  0  0  1  0            999 V2000
   -0.0447    3.4929    7.3759 C   0  0
   -0.8706    2.7824    8.4500 C   0  0
   -0.7147    1.3288    8.3059 N   0  3
    0.6197    0.8967    8.7424 C   0  0
    0.9304   -0.4784    8.1476 C   0  0
   -1.7663    0.6113    9.0388 C   0  0  2  0  0  0
   -3.1322    0.9636    8.4461 C   0  0
   -3.1274    0.6836    7.0081 N   0  0
   -4.2317    0.9188    6.2722 C   0  0
   -5.2316    1.3631    6.8015 O   0  0
   -4.2269    0.6362    4.8210 C   0  0
   -5.3688    0.8786    4.0559 C   0  0
   -5.3578    0.6124    2.7023 C   0  0
   -4.2181    0.1062    2.1030 C   0  0
   -3.0846   -0.1416    2.8566 C   0  0
   -3.0805    0.1255    4.2101 C   0  0
   -4.2126   -0.2311    0.3735 S   0  0
   -5.5672   -0.4329   -0.0052 O   0  0
   -3.2062   -1.2099    0.1539 O   0  0
   -3.7073    1.1474   -0.3925 N   0  5
   -2.4439    1.6808   -0.1123 C   0  0
   -1.3743    0.8362    0.1465 C   0  0
   -0.1275    1.3653    0.4225 C   0  0
    0.0557    2.7355    0.4469 C   0  0
   -1.0047    3.5834    0.1842 C   0  0
   -2.2572    3.0612   -0.0932 C   0  0
   -3.3023    3.8941   -0.3458 O   0  0
   -3.0369    5.2977   -0.3091 C   0  0
    1.0128    0.4630    0.6985 N   0  0
    0.8519   -0.7442    0.6823 O   0  0
    2.1131    0.9276    0.9369 O   0  0
   -1.7296    1.0191   10.5130 C   0  0  1  0  0  0
   -2.4583    2.3525   10.6916 C   0  0
   -2.4182   -0.0554   11.3568 C   0  0
   -0.3940    3.1844    6.3795 H   0  0
    1.0161    3.2254    7.4909 H   0  0
   -0.1610    4.5815    7.4833 H   0  0
   -1.9314    3.0498    8.3351 H   0  0
   -0.5204    3.0912    9.4460 H   0  0
   -0.8112    1.0976    7.3068 H   0  0
    0.6454    0.8347    9.8404 H   0  0
    1.3711    1.6227    8.3984 H   0  0
    0.9063   -0.4180    7.0495 H   0  0
    0.1798   -1.2056    8.4908 H   0  0
    1.9296   -0.8026    8.4741 H   0  0
   -1.5982   -0.4725    8.9538 H   0  0
   -3.9108    0.3591    8.9342 H   0  0
   -3.3401    2.0312    8.6103 H   0  0
   -2.2801    0.3070    6.5595 H   0  0
   -6.2755    1.2810    4.5312 H   0  0
   -6.2571    0.8030    2.0982 H   0  0
   -2.1847   -0.5525    2.3755 H   0  0
   -2.1758   -0.0636    4.8065 H   0  0
   -1.5183   -0.2542    0.1321 H   0  0
    1.0476    3.1523    0.6759 H   0  0
   -0.8534    4.6729    0.1956 H   0  0
   -2.2371    5.4804   -1.0418 H   0  0
   -2.6326    5.5099    0.6916 H   0  0
   -3.9287    5.9051   -0.5229 H   0  0
   -0.6841    1.1262   10.8378 H   0  0
   -3.5040    2.2464   10.3672 H   0  0
   -1.9637    3.1259   10.0856 H   0  0
   -2.4323    2.6463   11.7513 H   0  0
   -1.8948   -1.0145   11.2293 H   0  0
   -3.4639   -0.1632   11.0329 H   0  0
   -2.3921    0.2372   12.4168 H   0  0
  1  2  1  0
  2  3  1  0
  3  4  1  0
  3  6  1  0
  4  5  1  0
  6  7  1  0
  6 32  1  0
  7  8  1  0
  8  9  1  0
  9 10  2  0
  9 11  1  0
 11 16  2  0
 11 12  1  0
 12 13  2  0
 13 14  1  0
 14 15  2  0
 14 17  1  0
 15 16  1  0
 17 18  2  0
 17 19  2  0
 17 20  1  0
 20 21  1  0
 21 26  2  0
 21 22  1  0
 22 23  2  0
 23 24  1  0
 23 29  1  0
 24 25  2  0
 25 26  1  0
 26 27  1  0
 27 28  1  0
 29 30  2  0
 29 31  2  0
 32 33  1  0
 32 34  1  0
  1 35  1  0
  1 36  1  0
  1 37  1  0
  2 38  1  0
  2 39  1  0
  3 40  1  0
  4 41  1  0
  4 42  1  0
  5 43  1  0
  5 44  1  0
  5 45  1  0
  6 46  1  0
  7 47  1  0
  7 48  1  0
  8 49  1  0
 12 50  1  0
 13 51  1  0
 15 52  1  0
 16 53  1  0
 22 54  1  0
 24 55  1  0
 25 56  1  0
 28 57  1  0
 28 58  1  0
 28 59  1  0
 32 60  1  0
 33 61  1  0
 33 62  1  0
 33 63  1  0
 34 64  1  0
 34 65  1  0
 34 66  1  0
M  CHG  2   3   1  20  -1
M  END
> <Name>
ZINC24709825

> <reference>
BDB50021143

> <quality>
0.860

> <status>
decoy

$$$$
ZINC25270174
  SciTegic06061311253D

 55 56  0  0  0  0            999 V2000
   -5.6473   -6.3887    2.2261 C   0  0
   -4.4557   -5.4317    2.2975 C   0  0
   -3.3170   -6.0155    1.5842 N   0  0
   -2.4253   -6.9533    2.2709 C   0  0
   -1.3564   -6.1721    3.0378 C   0  0
   -3.0379   -5.6154    0.0017 S   0  0
   -4.2830   -5.1907   -0.5355 O   0  0
   -2.2900   -6.6843   -0.5616 O   0  0
   -1.9812   -4.2054   -0.0005 C   0  0
   -2.3915   -2.8691    0.0151 C   0  0
   -1.2482   -2.0966    0.0027 C   0  0
   -0.1704   -2.9534   -0.0117 N   0  0
   -0.6265   -4.2236   -0.0135 C   0  0
   -1.1914   -0.6328    0.0100 C   0  0
   -2.2202    0.0157    0.0233 O   0  0
    0.0021   -0.0041    0.0020 O   0  0
   -0.0176    1.4478    0.0100 C   0  0
    1.3962    1.9694   -0.0007 C   0  0
    2.3286    1.1939   -0.0138 O   0  0
    1.6245    3.2977    0.0043 N   0  0
    2.9388    3.7826   -0.0057 N   0  0
    3.1671    5.1109   -0.0007 C   0  0
    2.2347    5.8864    0.0123 O   0  0
    4.5809    5.6325   -0.0114 C   0  0
    4.5615    7.0614   -0.0036 O   0  0
    5.7641    7.6948   -0.0117 C   0  0
    6.9382    6.9561   -0.0210 C   0  0
    8.1594    7.6018   -0.0341 C   0  0
    8.2120    8.9844   -0.0271 C   0  0
    7.0420    9.7230   -0.0125 C   0  0
    5.8189    9.0810   -0.0047 C   0  0
    9.7479    9.7935   -0.0374 Cl  0  0
   -5.3768   -7.3480    2.6914 H   0  0
   -5.9215   -6.5566    1.1741 H   0  0
   -6.5027   -5.9509    2.7615 H   0  0
   -4.7269   -4.4728    1.8317 H   0  0
   -4.1814   -5.2637    3.3494 H   0  0
   -3.0082   -7.5646    2.9756 H   0  0
   -1.9403   -7.6079    1.5318 H   0  0
   -1.8396   -5.5177    3.7782 H   0  0
   -0.7725   -5.5603    2.3344 H   0  0
   -0.6865   -6.8757    3.5537 H   0  0
   -3.4286   -2.5030    0.0337 H   0  0
    0.8202   -2.6715   -0.0198 H   0  0
    0.0003   -5.1275   -0.0238 H   0  0
   -0.5321    1.8037    0.9148 H   0  0
   -0.5491    1.8124   -0.8814 H   0  0
    0.8327    3.9563    0.0155 H   0  0
    3.7306    3.1240   -0.0169 H   0  0
    5.1129    5.2687    0.8800 H   0  0
    5.0967    5.2785   -0.9162 H   0  0
    6.8969    5.8569   -0.0179 H   0  0
    9.0906    7.0164   -0.0501 H   0  0
    7.0859   10.8221   -0.0071 H   0  0
    4.8890    9.6685    0.0071 H   0  0
  1  2  1  0
  2  3  1  0
  3  4  1  0
  3  6  1  0
  4  5  1  0
  6  7  2  0
  6  8  2  0
  6  9  1  0
  9 13  2  0
  9 10  1  0
 10 11  2  0
 11 12  1  0
 11 14  1  0
 12 13  1  0
 14 15  2  0
 14 16  1  0
 16 17  1  0
 17 18  1  0
 18 19  2  0
 18 20  1  0
 20 21  1  0
 21 22  1  0
 22 23  2  0
 22 24  1  0
 24 25  1  0
 25 26  1  0
 26 31  2  0
 26 27  1  0
 27 28  2  0
 28 29  1  0
 29 30  2  0
 29 32  1  0
 30 31  1  0
  1 33  1  0
  1 34  1  0
  1 35  1  0
  2 36  1  0
  2 37  1  0
  4 38  1  0
  4 39  1  0
  5 40  1  0
  5 41  1  0
  5 42  1  0
 10 43  1  0
 12 44  1  0
 13 45  1  0
 17 46  1  0
 17 47  1  0
 20 48  1  0
 21 49  1  0
 24 50  1  0
 24 51  1  0
 27 52  1  0
 28 53  1  0
 30 54  1  0
 31 55  1  0
M  END
> <Name>
ZINC25270174

> <reference>
BDB50021143

> <quality>
0.857

> <status>
decoy

$$$$
ZINC10514091
  SciTegic06061311253D

 58 59  0  0  0  0            999 V2000
    3.9831    5.1992    1.4610 C   0  0
    3.3943    3.7985    1.6398 C   0  0
    2.0327    3.7685    1.0999 N   0  0
    0.9052    4.1958    1.9319 C   0  0
    0.4326    3.0222    2.7922 C   0  0
    1.7682    3.2516   -0.4510 S   0  0
    2.9860    3.4459   -1.1571 O   0  0
    0.5428    3.8360   -0.8704 O   0  0
    1.4986    1.5117   -0.3814 C   0  0
    2.5688    0.6434   -0.4921 C   0  0
    2.3641   -0.7229   -0.4383 C   0  0
    1.0826   -1.2260   -0.2728 C   0  0
    0.0030   -0.3501   -0.1611 C   0  0
    0.2174    1.0188   -0.2162 C   0  0
   -1.2935   -0.8515    0.0066 N   0  0
   -2.5782   -0.0760   -0.6938 S   0  0
   -3.7189   -0.8918   -0.4650 O   0  0
   -2.5138    1.2793   -0.2714 O   0  0
   -2.3006   -0.0749   -2.4338 C   0  0
   -2.1144    1.1186   -3.1003 C   0  0
   -1.8889    1.1172   -4.4780 C   0  0
   -1.8653   -0.0932   -5.1740 C   0  0
   -2.0585   -1.2787   -4.4961 C   0  0
   -2.2755   -1.2705   -3.1294 C   0  0
   -2.4859   -2.5698   -2.3955 C   0  0
   -1.6828    2.3909   -5.1975 C   0  0
   -1.7038    3.4422   -4.5894 O   0  0
    0.8730   -2.6093   -0.2176 N   0  0
    2.0086   -3.5275   -0.3352 C   0  0
    1.5091   -4.9707   -0.2436 C   0  0
    0.6731   -5.2576   -1.3665 O   0  0
   -1.4714    2.3864   -6.5279 O   0  5
    3.3607    5.9309    1.9970 H   0  0
    4.0079    5.4538    0.3912 H   0  0
    5.0055    5.2224    1.8662 H   0  0
    4.0171    3.0676    1.1033 H   0  0
    3.3694    3.5438    2.7096 H   0  0
    1.2230    5.0229    2.5837 H   0  0
    0.0798    4.5330    1.2877 H   0  0
    1.2566    2.6844    3.4379 H   0  0
    0.1143    2.1942    2.1417 H   0  0
   -0.4141    3.3424    3.4172 H   0  0
    3.5861    1.0408   -0.6234 H   0  0
    3.2179   -1.4108   -0.5268 H   0  0
   -0.6318    1.7125   -0.1285 H   0  0
   -1.4482   -1.7027    0.5656 H   0  0
   -2.1436    2.0691   -2.5474 H   0  0
   -1.6930   -0.1011   -6.2604 H   0  0
   -2.0401   -2.2329   -5.0431 H   0  0
   -3.4574   -2.4605   -1.8914 H   0  0
   -1.7129   -2.5858   -1.6130 H   0  0
   -2.4462   -3.4575   -3.0439 H   0  0
   -0.0795   -2.9814   -0.0943 H   0  0
    2.7229   -3.3352    0.4789 H   0  0
    2.5063   -3.3731   -1.3039 H   0  0
    2.3688   -5.6570   -0.2423 H   0  0
    0.9334   -5.1024    0.6844 H   0  0
    1.1902   -5.1405   -2.2026 H   0  0
  1  2  1  0
  2  3  1  0
  3  4  1  0
  3  6  1  0
  4  5  1  0
  6  7  2  0
  6  8  2  0
  6  9  1  0
  9 14  2  0
  9 10  1  0
 10 11  2  0
 11 12  1  0
 12 13  2  0
 12 28  1  0
 13 14  1  0
 13 15  1  0
 15 16  1  0
 16 17  2  0
 16 18  2  0
 16 19  1  0
 19 24  2  0
 19 20  1  0
 20 21  2  0
 21 22  1  0
 21 26  1  0
 22 23  2  0
 23 24  1  0
 24 25  1  0
 26 27  2  0
 26 32  1  0
 28 29  1  0
 29 30  1  0
 30 31  1  0
  1 33  1  0
  1 34  1  0
  1 35  1  0
  2 36  1  0
  2 37  1  0
  4 38  1  0
  4 39  1  0
  5 40  1  0
  5 41  1  0
  5 42  1  0
 10 43  1  0
 11 44  1  0
 14 45  1  0
 15 46  1  0
 20 47  1  0
 22 48  1  0
 23 49  1  0
 25 50  1  0
 25 51  1  0
 25 52  1  0
 28 53  1  0
 29 54  1  0
 29 55  1  0
 30 56  1  0
 30 57  1  0
 31 58  1  0
M  CHG  1  32  -1
M  END
> <Name>
ZINC10514091

> <reference>
BDB50021143

> <quality>
0.848

> <status>
decoy

$$$$
ZINC05822745
  SciTegic06061311253D

 71 74  0  0  1  0            999 V2000
    0.6694   -4.5691    1.6314 C   0  0
    1.3208   -3.7389    0.5555 C   0  0
    0.9056   -2.4757    0.3206 C   0  0
    1.5084   -1.7356   -0.6598 N   0  0
    2.5073   -2.2565   -1.3953 C   0  0
    3.0258   -1.5828   -2.2646 O   0  0
    2.9443   -3.5110   -1.1788 N   0  0
    2.3765   -4.2728   -0.2221 C   0  0
    2.7679   -5.4097   -0.0289 O   0  0
    1.0577   -0.3652   -0.9151 C   0  0  2  0  0  0
    2.1941    0.6401   -0.6246 C   0  0
    1.4705    1.8550   -0.0020 C   0  0  1  0  0  0
   -0.0175    1.4400    0.0100 C   0  0  1  0  0  0
    0.0021   -0.0041    0.0020 O   0  0
   -0.7043    1.9564    1.2759 C   0  0
   -2.0876    1.5991    1.2469 O   0  0
   -3.1172    1.9825    2.4237 P   0  0  1  0  0  0
   -2.4942    1.6991    3.7360 O   0  0
   -3.4977    3.6190    2.3251 N   0  0
   -4.1194    3.9379    1.0329 C   0  0  1  0  0  0
   -5.1762    5.0266    1.2303 C   0  0
   -6.2933    4.4924    2.0891 C   0  0
   -7.4438    3.9519    1.6575 C   0  0
   -8.2140    3.5797    2.7255 N   0  0
   -7.5613    3.8791    3.9003 C   0  0
   -6.3270    4.4587    3.5533 C   0  0
   -5.4461    4.8726    4.5539 C   0  0
   -5.7833    4.7029    5.8674 C   0  0
   -6.9971    4.1265    6.2149 C   0  0
   -7.8837    3.7157    5.2434 C   0  0
   -3.0644    4.4296    0.0756 C   0  0
   -1.9128    4.5064    0.4331 O   0  0
   -3.4041    4.7821   -1.1742 O   0  0
   -2.3361    5.2465   -2.0414 C   0  0
   -4.4604    1.1088    2.2675 O   0  0
   -5.4797    1.0628    3.2680 C   0  0
   -6.6103    0.1431    2.8022 C   0  0
   -7.6603    0.0957    3.8328 C   0  0
   -8.4705    0.0591    4.6282 N   0  0
    1.9480    2.0931    1.3624 N   0  0
    2.9874    2.4851    1.5336 N   0  3
    4.0268    2.8771    1.7049 N   0  5
    1.4955   -4.8712    2.2919 H   0  0
    0.3226   -5.4762    1.1148 H   0  0
   -0.1384   -4.0536    2.1714 H   0  0
    0.0867   -2.0437    0.9145 H   0  0
    3.7156   -3.8906   -1.7462 H   0  0
    0.7291   -0.3288   -1.9642 H   0  0
    2.6894    0.9346   -1.5616 H   0  0
    2.9037    0.2113    0.0983 H   0  0
    1.6467    2.7858   -0.5611 H   0  0
   -0.5721    1.8536   -0.8452 H   0  0
   -0.2287    1.5075    2.1604 H   0  0
   -0.6101    3.0513    1.3249 H   0  0
   -3.3185    4.3057    3.0716 H   0  0
   -4.5952    3.0352    0.6221 H   0  0
   -5.5791    5.3296    0.2526 H   0  0
   -4.7188    5.8966    1.7241 H   0  0
   -7.7257    3.8267    0.6016 H   0  0
   -9.1436    3.1409    2.6603 H   0  0
   -4.4840    5.3337    4.2862 H   0  0
   -5.0871    5.0257    6.6555 H   0  0
   -7.2539    3.9963    7.2766 H   0  0
   -8.8433    3.2600    5.5291 H   0  0
   -1.5931    4.4363   -2.0793 H   0  0
   -1.8745    6.1053   -1.5321 H   0  0
   -2.6934    5.5157   -3.0463 H   0  0
   -5.0557    0.6755    4.2062 H   0  0
   -5.8768    2.0749    3.4354 H   0  0
   -7.0351    0.5301    1.8642 H   0  0
   -6.2153   -0.8699    2.6354 H   0  0
  1  2  1  0
  2  8  1  0
  2  3  2  0
  3  4  1  0
  4  5  1  0
  4 10  1  0
  5  6  2  0
  5  7  1  0
  7  8  1  0
  8  9  2  0
 10 14  1  0
 10 11  1  0
 11 12  1  0
 12 13  1  0
 12 40  1  0
 13 14  1  0
 13 15  1  0
 15 16  1  0
 16 17  1  0
 17 18  2  0
 17 19  1  0
 17 35  1  0
 19 20  1  0
 20 21  1  0
 20 31  1  0
 21 22  1  0
 22 26  1  0
 22 23  2  0
 23 24  1  0
 24 25  1  0
 25 30  2  0
 25 26  1  0
 26 27  2  0
 27 28  1  0
 28 29  2  0
 29 30  1  0
 31 32  2  0
 31 33  1  0
 33 34  1  0
 35 36  1  0
 36 37  1  0
 37 38  1  0
 38 39  3  0
 40 41  2  0
 41 42  2  0
  1 43  1  0
  1 44  1  0
  1 45  1  0
  3 46  1  0
  7 47  1  0
 10 48  1  0
 11 49  1  0
 11 50  1  0
 12 51  1  0
 13 52  1  0
 15 53  1  0
 15 54  1  0
 19 55  1  0
 20 56  1  0
 21 57  1  0
 21 58  1  0
 23 59  1  0
 24 60  1  0
 27 61  1  0
 28 62  1  0
 29 63  1  0
 30 64  1  0
 34 65  1  0
 34 66  1  0
 34 67  1  0
 36 68  1  0
 36 69  1  0
 37 70  1  0
 37 71  1  0
M  CHG  2  41   1  42  -1
M  END
> <Name>
ZINC05822745

> <reference>
BDB50021143

> <quality>
0.835

> <status>
decoy

$$$$
ZINC15181297
  SciTegic06061311253D

 53 54  0  0  1  0            999 V2000
   -5.5340    1.6409    4.2655 C   0  0
   -5.1773   -0.0565    3.7344 S   0  0
   -4.5888    0.1318    2.0289 C   0  0
   -4.2476   -1.2437    1.4522 C   0  0
   -3.7513   -1.0848    0.0137 C   0  0  2  0  0  0
   -3.5321   -2.4458   -0.5952 C   0  0
   -2.4305   -2.7624   -0.9917 O   0  0
   -4.5602   -3.3110   -0.6992 N   0  0
   -4.3564   -4.5762   -1.2653 N   0  0
   -5.3845   -5.4415   -1.3693 C   0  0
   -6.4867   -5.1247   -0.9726 O   0  0
   -5.1671   -6.7912   -1.9732 C   0  0
   -4.0649   -7.1080   -2.3699 O   0  0
   -6.1952   -7.6564   -2.0772 N   0  0
   -5.9821   -8.9795   -2.6692 C   0  0
   -7.2798   -9.7456   -2.6673 C   0  0
   -8.1963   -9.7430   -3.6519 C   0  0
   -9.2472  -10.5921   -3.2355 C   0  0
   -8.9101  -11.0628   -2.0213 C   0  0
   -7.7148  -10.5513   -1.6847 O   0  0
   -2.4898   -0.3400    0.0119 N   0  0
   -2.5028    1.0076    0.0193 C   0  0
   -3.5614    1.6052    0.0275 O   0  0
   -1.2303    1.7589    0.0174 C   0  0
   -0.0126    1.0758    0.0080 C   0  0
    1.1713    1.7829    0.0004 C   0  0
    1.1553    3.1670    0.0071 C   0  0
   -0.0462    3.8510    0.0218 C   0  0
   -1.2400    3.1558    0.0299 C   0  0
   -2.7480    4.0156    0.0478 Cl  0  0
    2.4305    3.9184   -0.0020 N   0  0
    3.4906    3.3187   -0.0153 O   0  0
    2.4198    5.1363    0.0038 O   0  0
   -6.3317    2.1042    3.6662 H   0  0
   -4.6330    2.2720    4.2709 H   0  0
   -5.8977    1.5872    5.3022 H   0  0
   -5.3756    0.5996    1.4190 H   0  0
   -3.6903    0.7663    2.0179 H   0  0
   -3.4605   -1.7119    2.0615 H   0  0
   -5.1453   -1.8794    1.4614 H   0  0
   -4.5017   -0.5364   -0.5747 H   0  0
   -5.4957   -3.0421   -0.3625 H   0  0
   -3.4209   -4.8451   -1.6020 H   0  0
   -7.1307   -7.3875   -1.7405 H   0  0
   -5.6258   -8.8655   -3.7036 H   0  0
   -5.2320   -9.5289   -2.0815 H   0  0
   -8.1391   -9.1869   -4.5993 H   0  0
  -10.1645  -10.8235   -3.7967 H   0  0
   -9.5115  -11.7501   -1.4081 H   0  0
   -1.5929   -0.8463    0.0050 H   0  0
    0.0023   -0.0241    0.0067 H   0  0
    2.1310    1.2455   -0.0110 H   0  0
   -0.0516    4.9510    0.0271 H   0  0
  1  2  1  0
  2  3  1  0
  3  4  1  0
  4  5  1  0
  5  6  1  0
  5 21  1  0
  6  7  2  0
  6  8  1  0
  8  9  1  0
  9 10  1  0
 10 11  2  0
 10 12  1  0
 12 13  2  0
 12 14  1  0
 14 15  1  0
 15 16  1  0
 16 20  1  0
 16 17  2  0
 17 18  1  0
 18 19  2  0
 19 20  1  0
 21 22  1  0
 22 23  2  0
 22 24  1  0
 24 29  2  0
 24 25  1  0
 25 26  2  0
 26 27  1  0
 27 28  2  0
 27 31  1  0
 28 29  1  0
 29 30  1  0
 31 32  2  0
 31 33  2  0
  1 34  1  0
  1 35  1  0
  1 36  1  0
  3 37  1  0
  3 38  1  0
  4 39  1  0
  4 40  1  0
  5 41  1  0
  8 42  1  0
  9 43  1  0
 14 44  1  0
 15 45  1  0
 15 46  1  0
 17 47  1  0
 18 48  1  0
 19 49  1  0
 21 50  1  0
 25 51  1  0
 26 52  1  0
 28 53  1  0
M  END
> <Name>
ZINC15181297

> <reference>
BDB50021143

> <quality>
0.834

> <status>
decoy

$$$$
ZINC27428447
  SciTegic06061311253D

 61 62  0  0  0  0            999 V2000
   -4.0029    2.8367    0.0378 C   0  0
   -3.7263    1.3554    0.0271 C   0  0
   -4.7612    0.4320    0.0262 C   0  0
   -4.4223   -0.9252    0.0165 C   0  0
   -2.6894   -0.8915    0.0021 S   0  0
   -2.4454    0.8744    0.0184 C   0  0
   -1.1873    1.6238    0.0165 C   0  0
   -1.2038    2.8409    0.0232 O   0  0
   -0.0111    0.9658    0.0074 N   0  0
   -5.2618   -2.0220    0.0137 N   0  0
   -4.7446   -3.2665    0.0039 C   0  0
   -3.5422   -3.4234   -0.0025 O   0  0
   -5.6607   -4.4632    0.0008 C   0  0
   -4.8586   -5.6938   -0.0102 N   0  0
   -4.1040   -5.8191   -1.2643 C   0  0
   -3.1475   -7.0121   -1.1641 C   0  0
   -3.9233   -8.2023   -0.7835 N   0  0
   -4.8105   -8.1100    0.3860 C   0  0
   -5.7015   -6.8737    0.2247 C   0  0
   -3.8008   -9.6091   -1.6485 S   0  0
   -2.5381   -9.5769   -2.2995 O   0  0
   -4.1784  -10.6602   -0.7700 O   0  0
   -4.9493   -9.5527   -2.8402 N   0  0
   -4.6217   -8.9760   -4.1465 C   0  0
   -6.2928  -10.0796   -2.5882 C   0  0
   -6.1633    0.8639    0.0356 C   0  0
   -6.7494    1.0495   -1.0135 O   0  0
   -6.8021    1.0549    1.2077 O   0  0
   -8.1882    1.4822    1.1410 C   0  0
   -8.7403    1.6454    2.5585 C   0  0
   -8.0489    2.7069    3.2197 O   0  0
   -8.4907    2.9435    4.5580 C   0  0
   -3.4748    3.2238   -0.8461 H   0  0
   -3.4671    3.2125    0.9219 H   0  0
   -5.0715    3.0978    0.0442 H   0  0
    0.0029   -0.0641    0.0018 H   0  0
    0.8738    1.4929    0.0061 H   0  0
   -6.2831   -1.8888    0.0191 H   0  0
   -6.2997   -4.4349   -0.8941 H   0  0
   -6.2910   -4.4450    0.9022 H   0  0
   -3.5258   -4.8999   -1.4395 H   0  0
   -4.8027   -5.9787   -2.0988 H   0  0
   -2.6661   -7.1819   -2.1385 H   0  0
   -2.3833   -6.8103   -0.3991 H   0  0
   -5.4384   -9.0113    0.4454 H   0  0
   -4.2080   -8.0126    1.3011 H   0  0
   -6.2927   -6.7261    1.1405 H   0  0
   -6.3781   -7.0189   -0.6304 H   0  0
   -3.7467   -9.5483   -4.4882 H   0  0
   -4.2614   -7.9623   -3.9171 H   0  0
   -5.4449   -8.9804   -4.8761 H   0  0
   -6.6401   -9.5333   -1.6989 H   0  0
   -6.1253  -11.1192   -2.2701 H   0  0
   -6.9896  -10.0005   -3.4357 H   0  0
   -8.7802    0.7276    0.6024 H   0  0
   -8.2505    2.4440    0.6109 H   0  0
   -9.8134    1.8822    2.5092 H   0  0
   -8.5966    0.7100    3.1191 H   0  0
   -8.3562    2.0086    5.1217 H   0  0
   -9.5656    3.1733    4.5166 H   0  0
   -7.9330    3.7669    5.0281 H   0  0
  1  2  1  0
  2  6  2  0
  2  3  1  0
  3  4  2  0
  3 26  1  0
  4  5  1  0
  4 10  1  0
  5  6  1  0
  6  7  1  0
  7  8  2  0
  7  9  1  0
 10 11  1  0
 11 12  2  0
 11 13  1  0
 13 14  1  0
 14 19  1  0
 14 15  1  0
 15 16  1  0
 16 17  1  0
 17 18  1  0
 17 20  1  0
 18 19  1  0
 20 21  2  0
 20 22  2  0
 20 23  1  0
 23 24  1  0
 23 25  1  0
 26 27  2  0
 26 28  1  0
 28 29  1  0
 29 30  1  0
 30 31  1  0
 31 32  1  0
  1 33  1  0
  1 34  1  0
  1 35  1  0
  9 36  1  0
  9 37  1  0
 10 38  1  0
 13 39  1  0
 13 40  1  0
 15 41  1  0
 15 42  1  0
 16 43  1  0
 16 44  1  0
 18 45  1  0
 18 46  1  0
 19 47  1  0
 19 48  1  0
 24 49  1  0
 24 50  1  0
 24 51  1  0
 25 52  1  0
 25 53  1  0
 25 54  1  0
 29 55  1  0
 29 56  1  0
 30 57  1  0
 30 58  1  0
 32 59  1  0
 32 60  1  0
 32 61  1  0
M  END
> <Name>
ZINC27428447

> <reference>
BDB50021143

> <quality>
0.832

> <status>
decoy

$$$$
ZINC10049600
  SciTegic06061311253D

 65 68  0  0  0  0            999 V2000
   -0.0366    1.0992   -2.4903 C   0  0
   -0.7527    1.5927   -1.2315 C   0  0
   -0.0127    1.0858    0.0080 C   0  0
   -0.6984    1.5583    1.2133 N   0  0
   -0.2119    1.2256    2.4567 C   0  0
    0.8582    0.4913    2.6842 N   0  0
    1.0507    0.3615    3.9978 C   0  0
    0.0349    1.0599    4.6417 C   0  0
   -0.7571    1.6081    3.6417 N   0  0
   -1.9509    2.4366    3.8277 C   0  0
   -3.1885    1.5396    3.8975 C   0  0
   -4.4352    2.4049    4.0918 C   0  0
   -5.6202    1.5460    4.1587 N   0  0
   -6.1718    0.9829    5.3017 C   0  0
   -5.8471    1.0141    6.6694 C   0  0
   -4.8821    1.6484    7.0589 O   0  0
   -6.6154    0.3350    7.5461 N   0  0
   -7.6830   -0.3684    7.1310 C   0  0
   -8.3528   -0.9684    7.9496 O   0  0
   -8.0287   -0.4252    5.8310 N   0  0
   -7.2784    0.2520    4.8831 C   0  0
   -7.3690    0.3820    3.5586 N   0  0
   -6.3956    1.1511    3.1145 C   0  0
   -6.1935    1.4977    1.7983 N   0  0
   -7.1048    1.0043    0.7627 C   0  0
   -6.6593    1.5325   -0.6024 C   0  0
   -7.6110    1.0172   -1.6839 C   0  0
   -9.1991   -1.2038    5.4183 C   0  0
    0.0029    1.0847    6.0471 C   0  0
   -0.8781    1.6901    6.6324 O   0  0
    0.9576    0.4310    6.7410 N   0  0
    1.9351   -0.2411    6.1088 C   0  0
    2.7789   -0.8189    6.7668 O   0  0
    2.0026   -0.2907    4.7651 N   0  0
    3.0835   -1.0345    4.1135 C   0  0
   -0.0215   -0.0007   -2.4975 H   0  0
    0.9955    1.4796   -2.4992 H   0  0
   -0.5681    1.4633   -3.3819 H   0  0
   -0.7671    2.6926   -1.2250 H   0  0
   -1.7848    1.2124   -1.2225 H   0  0
    0.0017   -0.0141    0.0024 H   0  0
    1.0194    1.4661    0.0013 H   0  0
   -1.5446    2.1395    1.1300 H   0  0
   -1.8591    3.0073    4.7636 H   0  0
   -2.0508    3.1328    2.9819 H   0  0
   -3.2811    0.9689    2.9617 H   0  0
   -3.0909    0.8434    4.7435 H   0  0
   -4.3434    2.9756    5.0277 H   0  0
   -4.5351    3.1011    3.2460 H   0  0
   -6.3804    0.3558    8.5487 H   0  0
   -5.4016    2.1040    1.5411 H   0  0
   -7.0880   -0.0955    0.7530 H   0  0
   -8.1261    1.3536    0.9747 H   0  0
   -6.6763    2.6323   -0.5935 H   0  0
   -5.6385    1.1832   -0.8166 H   0  0
   -8.6323    1.3666   -1.4719 H   0  0
   -7.5951   -0.0826   -1.6941 H   0  0
   -7.2913    1.3966   -2.6657 H   0  0
  -10.0371   -0.7926    6.0003 H   0  0
   -9.0121   -2.2220    5.7902 H   0  0
   -9.3896   -1.1812    4.3352 H   0  0
    0.9371    0.4472    7.7707 H   0  0
    3.5792   -0.3026    3.4589 H   0  0
    2.5770   -1.7618    3.4620 H   0  0
    3.7832   -1.5136    4.8141 H   0  0
  1  2  1  0
  2  3  1  0
  3  4  1  0
  4  5  1  0
  5  9  1  0
  5  6  2  0
  6  7  1  0
  7 34  1  0
  7  8  2  0
  8  9  1  0
  8 29  1  0
  9 10  1  0
 10 11  1  0
 11 12  1  0
 12 13  1  0
 13 23  1  0
 13 14  1  0
 14 21  2  0
 14 15  1  0
 15 16  2  0
 15 17  1  0
 17 18  1  0
 18 19  2  0
 18 20  1  0
 20 21  1  0
 20 28  1  0
 21 22  1  0
 22 23  2  0
 23 24  1  0
 24 25  1  0
 25 26  1  0
 26 27  1  0
 29 30  2  0
 29 31  1  0
 31 32  1  0
 32 33  2  0
 32 34  1  0
 34 35  1  0
  1 36  1  0
  1 37  1  0
  1 38  1  0
  2 39  1  0
  2 40  1  0
  3 41  1  0
  3 42  1  0
  4 43  1  0
 10 44  1  0
 10 45  1  0
 11 46  1  0
 11 47  1  0
 12 48  1  0
 12 49  1  0
 17 50  1  0
 24 51  1  0
 25 52  1  0
 25 53  1  0
 26 54  1  0
 26 55  1  0
 27 56  1  0
 27 57  1  0
 27 58  1  0
 28 59  1  0
 28 60  1  0
 28 61  1  0
 31 62  1  0
 35 63  1  0
 35 64  1  0
 35 65  1  0
M  END
> <Name>
ZINC10049600

> <reference>
BDB50021143

> <quality>
0.832

> <status>
decoy

$$$$
ZINC27188364
  SciTegic06061311253D

 52 54  0  0  0  0            999 V2000
    2.4442    2.6381   -2.6549 C   0  0
    3.4287    3.1033   -1.7944 C   0  0
    3.3181    2.8150   -0.4417 C   0  0
    2.2369    2.0833    0.0054 C   0  0
    1.3154    1.6490   -0.8441 N   0  3
    1.3919    1.9077   -2.1431 C   0  0
    0.2520    0.9178   -0.3659 C   0  0
    0.4705   -0.3244    0.2245 C   0  0
   -0.5753   -1.0114    0.7814 N   0  0
   -0.9006   -2.2903    0.3144 C   0  0
   -0.2676   -2.8005   -0.8116 C   0  0
   -0.5846   -4.0646   -1.2680 C   0  0
   -1.5439   -4.8200   -0.6094 C   0  0
   -2.1807   -4.3087    0.5120 C   0  0
   -1.8605   -3.0473    0.9733 C   0  0
   -1.8598   -6.0623   -1.0631 O   0  0
   -1.1650   -6.5256   -2.2227 C   0  0  1  0  0  0
   -1.4148   -5.6598   -3.2929 F   0  0
    0.2088   -6.5591   -1.9608 F   0  0
    2.0924   -1.0123    0.2552 S   0  5
   -1.0592    1.4238   -0.4791 C   0  0
   -1.8568    0.8882   -1.2304 O   0  0
   -1.4672    2.6037    0.3129 C   0  0
   -0.5690    3.1860    1.2135 C   0  0
   -0.9415    4.2883    1.9495 C   0  0
   -2.2160    4.8235    1.8115 C   0  0
   -3.1267    4.2437    0.9151 C   0  0
   -2.7472    3.1315    0.1663 C   0  0
   -4.4812    4.8099    0.7657 C   0  0
   -4.8101    5.7804    1.4202 O   0  0
   -5.3538    4.2513   -0.0962 N   0  0
   -2.5798    5.9050    2.5427 O   0  5
    4.3640    3.3000    0.5289 C   0  0
    3.9955    4.5900    1.0208 O   0  0
    2.5024    2.8494   -3.7328 H   0  0
    4.2784    3.6880   -2.1766 H   0  0
    2.1382    1.8578    1.0775 H   0  0
    0.6079    1.5358   -2.8191 H   0  0
   -1.1225   -0.5870    1.5439 H   0  0
    0.4860   -2.1978   -1.3397 H   0  0
   -0.0763   -4.4728   -2.1540 H   0  0
   -2.9410   -4.9084    1.0339 H   0  0
   -2.3656   -2.6421    1.8625 H   0  0
   -1.5140   -7.5366   -2.4798 H   0  0
    0.4386    2.7616    1.3341 H   0  0
   -0.2274    4.7469    2.6493 H   0  0
   -3.4563    2.6722   -0.5381 H   0  0
   -5.0753    3.4292   -0.6507 H   0  0
   -6.2992    4.6465   -0.2005 H   0  0
    5.3363    3.3669    0.0188 H   0  0
    4.4389    2.5951    1.3700 H   0  0
    3.1210    4.5313    1.4811 H   0  0
  1  6  2  0
  1  2  1  0
  2  3  2  0
  3  4  1  0
  3 33  1  0
  4  5  2  0
  5  6  1  0
  5  7  1  0
  7  8  2  0
  7 21  1  0
  8  9  1  0
  8 20  1  0
  9 10  1  0
 10 15  2  0
 10 11  1  0
 11 12  2  0
 12 13  1  0
 13 14  2  0
 13 16  1  0
 14 15  1  0
 16 17  1  0
 17 18  1  0
 17 19  1  0
 21 22  2  0
 21 23  1  0
 23 28  2  0
 23 24  1  0
 24 25  2  0
 25 26  1  0
 26 27  2  0
 26 32  1  0
 27 28  1  0
 27 29  1  0
 29 30  2  0
 29 31  1  0
 33 34  1  0
  1 35  1  0
  2 36  1  0
  4 37  1  0
  6 38  1  0
  9 39  1  0
 11 40  1  0
 12 41  1  0
 14 42  1  0
 15 43  1  0
 17 44  1  0
 24 45  1  0
 25 46  1  0
 28 47  1  0
 31 48  1  0
 31 49  1  0
 33 50  1  0
 33 51  1  0
 34 52  1  0
M  CHG  3   5   1  20  -1  32  -1
M  END
> <Name>
ZINC27188364

> <reference>
BDB50021143

> <quality>
0.829

> <status>
decoy

$$$$
ZINC29049383
  SciTegic06061311253D

 58 60  0  0  0  0            999 V2000
    0.1306    1.0188   -2.4031 C   0  0
   -0.6416    1.3350   -1.1941 N   0  3
   -2.0063    0.7991   -1.2859 C   0  0
    0.0387    0.8391    0.0098 C   0  0
   -0.6452    1.3880    1.2354 C   0  0
   -0.2277    2.5875    1.7811 C   0  0
   -0.8580    3.0931    2.9027 C   0  0
   -1.8995    2.3946    3.4842 C   0  0
   -2.3139    1.1927    2.9413 C   0  0
   -1.6865    0.6892    1.8171 C   0  0
   -2.5835    2.9435    4.7097 C   0  0
   -1.9057    2.4482    5.9103 N   0  0
   -2.3467    2.8108    7.1312 C   0  0
   -3.3072    3.5491    7.2361 O   0  0
   -1.6642    2.3121    8.3402 C   0  0
   -0.5633    1.4587    8.2213 C   0  0
    0.0742    0.9991    9.3509 C   0  0
   -0.3823    1.3749   10.6113 C   0  0
   -1.4819    2.2201   10.7330 C   0  0
   -2.1204    2.6874    9.6072 C   0  0
    0.2610    0.9049   11.7508 N   0  0
    0.6540   -0.6988   11.8778 S   0  0
    1.3733   -1.0352   10.6994 O   0  0
    1.1947   -0.8827   13.1789 O   0  0
   -0.8531   -1.6102   11.8252 C   0  0
   -1.5814   -1.8072   12.9841 C   0  0
   -2.7659   -2.5165   12.9446 C   0  0
   -3.2192   -3.0412   11.7427 C   0  0
   -2.4839   -2.8470   10.5826 C   0  0
   -1.3025   -2.1320   10.6265 C   0  0
   -2.9648   -3.4049    9.2989 N   0  0
   -2.3189   -3.2338    8.2805 O   0  0
   -4.0063   -4.0352    9.2608 O   0  0
   -4.3813   -3.7445   11.7023 O   0  5
   -0.3781    1.4569   -3.2745 H   0  0
    0.1724   -0.0739   -2.5225 H   0  0
    1.1492    1.4258   -2.3203 H   0  0
   -0.7084    2.3602   -1.1204 H   0  0
   -1.9519   -0.2923   -1.4119 H   0  0
   -2.5024    1.2385   -2.1639 H   0  0
   -2.5722    1.0432   -0.3747 H   0  0
    1.0890    1.1658   -0.0004 H   0  0
   -0.0033   -0.2599    0.0284 H   0  0
    0.6061    3.1396    1.3228 H   0  0
   -0.5307    4.0513    3.3325 H   0  0
   -3.1429    0.6370    3.4039 H   0  0
   -2.0158   -0.2675    1.3854 H   0  0
   -2.5409    4.0425    4.6923 H   0  0
   -3.6340    2.6174    4.7217 H   0  0
   -1.0921    1.8228    5.8214 H   0  0
   -0.2071    1.1549    7.2259 H   0  0
    0.9454    0.3341    9.2579 H   0  0
   -1.8407    2.5147   11.7302 H   0  0
   -2.9888    3.3555    9.7041 H   0  0
    0.4931    1.5542   12.5160 H   0  0
   -1.2171   -1.3987   13.9382 H   0  0
   -3.3494   -2.6653   13.8651 H   0  0
   -0.7190   -1.9778    9.7069 H   0  0
  1  2  1  0
  2  3  1  0
  2  4  1  0
  4  5  1  0
  5 10  2  0
  5  6  1  0
  6  7  2  0
  7  8  1  0
  8  9  2  0
  8 11  1  0
  9 10  1  0
 11 12  1  0
 12 13  1  0
 13 14  2  0
 13 15  1  0
 15 20  2  0
 15 16  1  0
 16 17  2  0
 17 18  1  0
 18 19  2  0
 18 21  1  0
 19 20  1  0
 21 22  1  0
 22 23  2  0
 22 24  2  0
 22 25  1  0
 25 30  2  0
 25 26  1  0
 26 27  2  0
 27 28  1  0
 28 29  2  0
 28 34  1  0
 29 30  1  0
 29 31  1  0
 31 32  2  0
 31 33  2  0
  1 35  1  0
  1 36  1  0
  1 37  1  0
  2 38  1  0
  3 39  1  0
  3 40  1  0
  3 41  1  0
  4 42  1  0
  4 43  1  0
  6 44  1  0
  7 45  1  0
  9 46  1  0
 10 47  1  0
 11 48  1  0
 11 49  1  0
 12 50  1  0
 16 51  1  0
 17 52  1  0
 19 53  1  0
 20 54  1  0
 21 55  1  0
 26 56  1  0
 27 57  1  0
 30 58  1  0
M  CHG  2   2   1  34  -1
M  END
> <Name>
ZINC29049383

> <reference>
BDB50021143

> <quality>
0.828

> <status>
decoy

$$$$
ZINC31908284
  SciTegic06061311253D

 64 67  0  0  1  0            999 V2000
   -1.1615   -2.8337    5.3591 C   0  0
   -0.2056   -3.1992    6.2971 C   0  0
    1.1301   -3.2585    5.9554 C   0  0
    1.5314   -2.9495    4.6599 C   0  0
    0.5588   -2.5795    3.7102 C   0  0
   -0.7940   -2.5265    4.0805 C   0  0
    1.2269   -2.3219    2.4861 C   0  0
    2.6551   -2.5598    2.7396 C   0  0
    2.7809   -2.9298    4.0650 N   0  0
    3.6818   -2.4342    1.8231 C   0  0
    5.1216   -2.6576    2.0408 C   0  0
    5.8785   -3.0507    3.1406 C   0  0
    7.2486   -3.1810    3.0175 C   0  0
    7.8674   -2.9271    1.8038 C   0  0
    7.1315   -2.5413    0.7006 C   0  0
    5.7450   -2.4025    0.7977 C   0  0
    4.8056   -2.0434   -0.1173 N   0  0
    3.5861   -2.0347    0.3875 C   0  0
    2.5618   -1.7512   -0.2129 O   0  0
    0.6591   -1.9373    1.3112 N   0  0
    0.5895   -0.4792    1.2150 O   0  0
    0.0021   -0.0041    0.0020 C   0  0
   -0.0187    1.5258    0.0104 C   0  0
    1.3595    2.0342    0.0000 N   0  3
    1.3788    3.5031    0.0077 C   0  0
    2.8278    3.9942   -0.0035 C   0  0  1  0  0  0
    2.8478    5.5240    0.0045 C   0  0  1  0  0  0
    4.2968    6.0151   -0.0067 C   0  0  2  0  0  0
    4.3175    7.5405   -0.1244 C   0  0  2  0  0  0
    5.7665    8.0316   -0.1356 C   0  0
    5.7895    9.4423   -0.3622 O   0  0
    3.6289    8.1135    0.9889 O   0  0
    4.9854    5.4421   -1.1200 O   0  0
    2.1694    6.0154   -1.1532 O   0  0
    3.5062    3.5028    1.1542 O   0  0
   -2.2221   -2.7913    5.6479 H   0  0
   -0.5161   -3.4441    7.3235 H   0  0
    1.8777   -3.5502    6.7077 H   0  0
   -1.5566   -2.2381    3.3421 H   0  0
    3.6678   -3.1560    4.5374 H   0  0
    5.3882   -3.2567    4.1035 H   0  0
    7.8502   -3.4873    3.8859 H   0  0
    8.9588   -3.0342    1.7180 H   0  0
    7.6378   -2.3431   -0.2556 H   0  0
    0.3228   -2.5865    0.5857 H   0  0
   -1.0270   -0.3836   -0.0816 H   0  0
    0.5940   -0.3575   -0.8552 H   0  0
   -0.5502    1.8903   -0.8810 H   0  0
   -0.5332    1.8817    0.9152 H   0  0
    1.8570    1.6842    0.8312 H   0  0
    1.8419    1.6934   -0.8438 H   0  0
    0.8571    3.8815   -0.8837 H   0  0
    0.8741    3.8728    0.9125 H   0  0
    3.3330    3.6257   -0.9085 H   0  0
    2.3426    5.8925    0.9095 H   0  0
    4.7936    5.7126    0.9269 H   0  0
    3.8207    7.8430   -1.0580 H   0  0
    6.2368    7.8087    0.8335 H   0  0
    6.3210    7.5230   -0.9380 H   0  0
    5.2917    9.9016    0.3598 H   0  0
    4.0755    7.8420    1.8297 H   0  0
    4.5390    5.7140   -1.9608 H   0  0
    1.2316    5.6983   -1.1467 H   0  0
    3.4939    2.5129    1.1497 H   0  0
  1  6  1  0
  1  2  2  0
  2  3  1  0
  3  4  2  0
  4  9  1  0
  4  5  1  0
  5  6  2  0
  5  7  1  0
  7  8  2  0
  7 20  1  0
  8  9  1  0
  8 10  1  0
 10 18  1  0
 10 11  2  0
 11 16  1  0
 11 12  1  0
 12 13  2  0
 13 14  1  0
 14 15  2  0
 15 16  1  0
 16 17  2  0
 17 18  1  0
 18 19  2  0
 20 21  1  0
 21 22  1  0
 22 23  1  0
 23 24  1  0
 24 25  1  0
 25 26  1  0
 26 27  1  0
 26 35  1  0
 27 28  1  0
 27 34  1  0
 28 29  1  0
 28 33  1  0
 29 30  1  0
 29 32  1  0
 30 31  1  0
  1 36  1  0
  2 37  1  0
  3 38  1  0
  6 39  1  0
  9 40  1  0
 12 41  1  0
 13 42  1  0
 14 43  1  0
 15 44  1  0
 20 45  1  0
 22 46  1  0
 22 47  1  0
 23 48  1  0
 23 49  1  0
 24 50  1  0
 24 51  1  0
 25 52  1  0
 25 53  1  0
 26 54  1  0
 27 55  1  0
 28 56  1  0
 29 57  1  0
 30 58  1  0
 30 59  1  0
 31 60  1  0
 32 61  1  0
 33 62  1  0
 34 63  1  0
 35 64  1  0
M  CHG  1  24   1
M  END
> <Name>
ZINC31908284

> <reference>
BDB50021143

> <quality>
0.825

> <status>
decoy

$$$$
ZINC09518933
  SciTegic06061311253D

 63 65  0  0  1  0            999 V2000
   -0.2496    1.9088    0.0239 C   0  0
   -0.8750    2.2507    1.2625 O   0  0
   -0.3133    1.7518    2.3961 C   0  0
    0.8148    0.9510    2.3178 C   0  0
    1.3845    0.4447    3.4711 C   0  0
    0.8311    0.7354    4.7043 C   0  0
   -0.2943    1.5337    4.7895 C   0  0
   -0.8669    2.0491    3.6377 C   0  0
   -1.9708    2.8392    3.7201 O   0  0
   -2.4842    3.1021    5.0275 C   0  0
    1.5623    0.0875    6.1707 S   0  0
    0.5385    0.0570    7.1556 O   0  0
    2.2837   -1.0745    5.7855 O   0  0
    2.6836    1.1911    6.6875 N   0  0
    4.1080    1.0330    6.3540 C   0  0
    4.9239    1.1622    7.6411 C   0  0
    4.5173    2.4504    8.3626 C   0  0
    3.1190    2.4122    8.6565 O   0  0
    2.2828    2.3513    7.4968 C   0  0  2  0  0  0
    0.8219    2.1986    7.9248 C   0  0
    0.7121    1.1212    8.9114 N   0  0
   -0.4896    0.8056    9.4336 C   0  0
   -1.4806    1.4138    9.0867 O   0  0
   -0.6015   -0.2936   10.4401 C   0  0
    0.3895   -0.9018   10.7871 O   0  0
   -1.8032   -0.6092   10.9624 N   0  0
   -1.9130   -1.6866   11.9489 C   0  0
   -3.3739   -1.8393   12.3770 C   0  0
   -3.4885   -2.9646   13.4073 C   0  0
   -4.8874   -3.1108   13.8172 N   0  0
   -5.4997   -2.4689   14.8597 C   0  0
   -6.7791   -2.8890   14.8785 C   0  0
   -6.9411   -3.7705   13.8806 N   0  0
   -5.8122   -3.9083   13.2406 C   0  0
   -0.2399    0.8099   -0.0247 H   0  0
    0.7927    2.2524    0.0985 H   0  0
   -0.7598    2.3483   -0.8459 H   0  0
    1.2570    0.7181    1.3379 H   0  0
    2.2801   -0.1908    3.4075 H   0  0
   -0.7352    1.7598    5.7716 H   0  0
   -1.6618    3.5606    5.5963 H   0  0
   -2.7004    2.1220    5.4777 H   0  0
   -3.3754    3.7467    5.0129 H   0  0
    4.2755    0.0408    5.9096 H   0  0
    4.4118    1.8174    5.6451 H   0  0
    5.9956    1.2013    7.3962 H   0  0
    4.7240    0.2981    8.2918 H   0  0
    5.0860    2.5409    9.2998 H   0  0
    4.7322    3.3160    7.7187 H   0  0
    2.3896    3.2744    6.9082 H   0  0
    0.4699    3.1406    8.3706 H   0  0
    0.2050    1.9553    7.0471 H   0  0
    1.5533    0.6049    9.2060 H   0  0
   -2.6444   -0.0929   10.6679 H   0  0
   -1.5616   -2.6290   11.5035 H   0  0
   -1.2975   -1.4446   12.8279 H   0  0
   -3.7258   -0.8974   12.8230 H   0  0
   -3.9908   -2.0825   11.4994 H   0  0
   -2.8730   -2.7226   14.2863 H   0  0
   -3.1371   -3.9070   12.9618 H   0  0
   -5.0359   -1.7484   15.5495 H   0  0
   -7.5552   -2.5659   15.5879 H   0  0
   -5.6421   -4.5652   12.3749 H   0  0
  1  2  1  0
  2  3  1  0
  3  8  2  0
  3  4  1  0
  4  5  2  0
  5  6  1  0
  6  7  2  0
  6 11  1  0
  7  8  1  0
  8  9  1  0
  9 10  1  0
 11 12  2  0
 11 13  2  0
 11 14  1  0
 14 19  1  0
 14 15  1  0
 15 16  1  0
 16 17  1  0
 17 18  1  0
 18 19  1  0
 19 20  1  0
 20 21  1  0
 21 22  1  0
 22 23  2  0
 22 24  1  0
 24 25  2  0
 24 26  1  0
 26 27  1  0
 27 28  1  0
 28 29  1  0
 29 30  1  0
 30 34  1  0
 30 31  1  0
 31 32  2  0
 32 33  1  0
 33 34  2  0
  1 35  1  0
  1 36  1  0
  1 37  1  0
  4 38  1  0
  5 39  1  0
  7 40  1  0
 10 41  1  0
 10 42  1  0
 10 43  1  0
 15 44  1  0
 15 45  1  0
 16 46  1  0
 16 47  1  0
 17 48  1  0
 17 49  1  0
 19 50  1  0
 20 51  1  0
 20 52  1  0
 21 53  1  0
 26 54  1  0
 27 55  1  0
 27 56  1  0
 28 57  1  0
 28 58  1  0
 29 59  1  0
 29 60  1  0
 31 61  1  0
 32 62  1  0
 34 63  1  0
M  END
> <Name>
ZINC09518933

> <reference>
BDB50021143

> <quality>
0.823

> <status>
decoy

$$$$
ZINC13121212
  SciTegic06061311253D

 58 61  0  0  0  0            999 V2000
   -2.6891    1.4867    3.0139 C   0  0
   -1.9790    1.1105    1.8907 C   0  0
   -0.9413    1.9000    1.4303 C   0  0
   -0.6073    3.0652    2.0957 C   0  0
   -1.3166    3.4495    3.2168 C   0  0
   -2.3596    2.6591    3.6815 C   0  0
   -3.0773    3.0433    4.8195 N   0  0
   -3.5695    2.1064    5.6540 C   0  0
   -3.3100    0.9356    5.4720 O   0  0
   -4.4422    2.5134    6.8132 C   0  0
   -4.8457    1.3211    7.5629 N   0  0
   -5.9912    0.6770    7.2217 C   0  0
   -6.3824   -0.3916    7.8627 N   0  0
   -5.6753   -0.8785    8.8782 C   0  0
   -4.4786   -0.2770    9.3077 C   0  0
   -4.0760    0.8898    8.5795 C   0  0
   -3.0527    1.4821    8.8757 O   0  0
   -3.8299   -0.9323   10.4279 C   0  0
   -4.3926   -2.0285   10.9613 C   0  0
   -5.8606   -2.2598    9.9763 S   0  0
   -0.0379    1.4164   -0.0032 S   0  0
   -0.1872    0.0082   -0.1214 O   0  0
    1.2344    2.0426    0.0882 O   0  0
   -0.8015    2.0849   -1.3118 N   0  0
   -0.8473    3.5408   -1.4683 C   0  0
   -1.2600    3.8870   -2.9003 C   0  0
   -1.3078    5.4075   -3.0638 C   0  0
   -1.7041    5.7399   -4.4388 N   0  0
   -0.6722    5.3237   -5.3997 C   0  0
   -1.1508    5.6338   -6.8205 C   0  0
   -1.4547    7.0276   -6.9222 O   0  0
   -2.4564    7.4672   -6.0009 C   0  0
   -1.9911    7.1756   -4.5718 C   0  0
   -3.5148    0.8584    3.3793 H   0  0
   -2.2392    0.1818    1.3617 H   0  0
    0.2242    3.6867    1.7318 H   0  0
   -1.0556    4.3807    3.7410 H   0  0
   -3.2295    4.0422    5.0195 H   0  0
   -5.3377    3.0290    6.4361 H   0  0
   -3.8812    3.1896    7.4750 H   0  0
   -6.6005    1.0620    6.3907 H   0  0
   -2.8882   -0.5358   10.8354 H   0  0
   -4.0339   -2.6378   11.8040 H   0  0
   -1.2442    1.4771   -2.0157 H   0  0
   -1.5796    3.9626   -0.7641 H   0  0
    0.1465    3.9644   -1.2614 H   0  0
   -0.5279    3.4658   -3.6050 H   0  0
   -2.2543    3.4651   -3.1087 H   0  0
   -0.3139    5.8311   -2.8569 H   0  0
   -2.0400    5.8293   -2.3596 H   0  0
   -0.4918    4.2430   -5.3015 H   0  0
    0.2597    5.8725   -5.1988 H   0  0
   -0.3583    5.3778   -7.5391 H   0  0
   -2.0531    5.0448   -7.0419 H   0  0
   -2.6165    8.5489   -6.1208 H   0  0
   -3.3972    6.9317   -6.1963 H   0  0
   -2.7833    7.4591   -3.8633 H   0  0
   -1.0807    7.7546   -4.3575 H   0  0
  1  6  2  0
  1  2  1  0
  2  3  2  0
  3  4  1  0
  3 21  1  0
  4  5  2  0
  5  6  1  0
  6  7  1  0
  7  8  1  0
  8  9  2  0
  8 10  1  0
 10 11  1  0
 11 16  1  0
 11 12  1  0
 12 13  2  0
 13 14  1  0
 14 20  1  0
 14 15  2  0
 15 16  1  0
 15 18  1  0
 16 17  2  0
 18 19  2  0
 19 20  1  0
 21 22  2  0
 21 23  2  0
 21 24  1  0
 24 25  1  0
 25 26  1  0
 26 27  1  0
 27 28  1  0
 28 33  1  0
 28 29  1  0
 29 30  1  0
 30 31  1  0
 31 32  1  0
 32 33  1  0
  1 34  1  0
  2 35  1  0
  4 36  1  0
  5 37  1  0
  7 38  1  0
 10 39  1  0
 10 40  1  0
 12 41  1  0
 18 42  1  0
 19 43  1  0
 24 44  1  0
 25 45  1  0
 25 46  1  0
 26 47  1  0
 26 48  1  0
 27 49  1  0
 27 50  1  0
 29 51  1  0
 29 52  1  0
 30 53  1  0
 30 54  1  0
 32 55  1  0
 32 56  1  0
 33 57  1  0
 33 58  1  0
M  END
> <Name>
ZINC13121212

> <reference>
BDB50021143

> <quality>
0.823

> <status>
decoy

$$$$
ZINC08873272
  SciTegic06061311253D

 54 56  0  0  0  0            999 V2000
    1.9041   -5.2938   -1.6700 C   0  0
    1.5428   -3.9245   -2.2491 C   0  0
   -0.7802   -4.2962   -1.6763 C   0  0
   -1.3030   -4.2541   -3.1136 C   0  0
    0.6750   -3.1274   -0.1339 C   0  0
    1.6873   -2.0152   -0.0378 C   0  0
    1.4264   -0.6727    0.0539 C   0  0
    2.6550   -0.0615    0.1117 N   0  0
    3.5557   -0.9800    0.0669 N   0  0
    3.0147   -2.1419   -0.0251 N   0  0
    2.8863    1.3142    0.2064 C   0  0
    4.1972    1.9687    0.1639 C   0  0
    4.0171    3.2555    0.2809 N   0  0
    2.6251    3.4897    0.4012 O   0  0
    1.9728    2.2336    0.3420 N   0  0
    5.4228    1.3277    0.0228 N   0  0
    0.1072   -0.0224    0.0787 C   0  0
   -0.5015    0.1586   -0.9592 O   0  0
   -0.4273    0.3730    1.2511 N   0  0
   -1.6322    1.0877    1.2660 N   0  0
   -2.1470    1.4685    2.3953 C   0  0
   -3.4148    2.2205    2.4110 C   0  0
   -3.9735    2.6263    3.6262 C   0  0
   -5.1598    3.3353    3.6353 C   0  0
   -5.8019    3.6351    2.4358 C   0  0
   -5.2506    3.2280    1.2291 C   0  0
   -4.0636    2.5243    1.2118 C   0  0
   -6.1275    3.6390   -0.3952 Br  0  0
   -6.9713    4.3285    2.4474 O   0  0
   -5.7035    3.7356    4.8159 O   0  0
   -4.9915    3.3940    6.0069 C   0  0
    0.3617   -3.3651   -1.5587 N   0  0
    1.0491   -5.9742   -1.7962 H   0  0
    2.1239   -5.1838   -0.5978 H   0  0
    2.7836   -5.7013   -2.1901 H   0  0
    2.3947   -3.2399   -2.1242 H   0  0
    1.3210   -4.0284   -3.3215 H   0  0
   -1.5785   -3.9888   -0.9847 H   0  0
   -0.4493   -5.3167   -1.4333 H   0  0
   -0.5081   -4.5611   -3.8092 H   0  0
   -1.6357   -3.2350   -3.3603 H   0  0
   -2.1536   -4.9449   -3.2095 H   0  0
   -0.2420   -2.8394    0.4011 H   0  0
    1.0917   -4.0440    0.3090 H   0  0
    5.3827    0.3016   -0.0573 H   0  0
    6.3213    1.8307   -0.0019 H   0  0
    0.0500    0.1497    2.1361 H   0  0
   -1.6372    1.2300    3.3404 H   0  0
   -3.4701    2.3819    4.5732 H   0  0
   -3.6285    2.2027    0.2540 H   0  0
   -6.7664    5.1666    2.9329 H   0  0
   -3.9858    3.8269    5.9009 H   0  0
   -4.8895    2.2987    6.0029 H   0  0
   -5.4921    3.7509    6.9190 H   0  0
  1  2  1  0
  2 32  1  0
  3  4  1  0
  3 32  1  0
  5  6  1  0
  5 32  1  0
  6 10  1  0
  6  7  2  0
  7  8  1  0
  7 17  1  0
  8  9  1  0
  8 11  1  0
  9 10  2  0
 11 15  2  0
 11 12  1  0
 12 13  2  0
 12 16  1  0
 13 14  1  0
 14 15  1  0
 17 18  2  0
 17 19  1  0
 19 20  1  0
 20 21  2  0
 21 22  1  0
 22 27  2  0
 22 23  1  0
 23 24  2  0
 24 25  1  0
 24 30  1  0
 25 26  2  0
 25 29  1  0
 26 27  1  0
 26 28  1  0
 30 31  1  0
  1 33  1  0
  1 34  1  0
  1 35  1  0
  2 36  1  0
  2 37  1  0
  3 38  1  0
  3 39  1  0
  4 40  1  0
  4 41  1  0
  4 42  1  0
  5 43  1  0
  5 44  1  0
 16 45  1  0
 16 46  1  0
 19 47  1  0
 21 48  1  0
 23 49  1  0
 27 50  1  0
 29 51  1  0
 31 52  1  0
 31 53  1  0
 31 54  1  0
M  END
> <Name>
ZINC08873272

> <reference>
BDB50021143

> <quality>
0.823

> <status>
decoy

$$$$
ZINC27072962
  SciTegic06061311253D

 64 66  0  0  1  0            999 V2000
   -0.3911    6.4960    6.8132 C   0  0
    0.4672    6.5865    5.5498 C   0  0
    0.8001    5.2487    5.0940 O   0  0
    1.5581    5.1515    3.9826 C   0  0
    1.9305    6.1579    3.4106 O   0  0
    1.9332    3.8323    3.4643 C   0  0
    2.6923    3.5951    2.3547 C   0  0
    2.8061    2.1944    2.2233 C   0  0
    2.0992    1.6291    3.2666 C   0  0
    1.5805    2.6188    4.0135 N   0  0
    1.9398    0.1531    3.5256 C   0  0
    3.5382    1.4693    1.1651 C   0  0
    4.7404    1.2917    1.2675 O   0  0
    2.8466    0.9819    0.0357 C   0  0
    3.5190    0.2249   -0.9187 C   0  0
    4.8727    0.0438   -0.8195 N   0  0
    5.5990   -0.6502   -1.8859 C   0  0
    7.0856   -0.7175   -1.5302 C   0  0  1  0  0  0
    7.8589   -1.4462   -2.6464 C   0  0
    8.9094   -0.4114   -3.1179 C   0  0
    8.9897    0.5468   -1.9023 C   0  0
    7.6257    0.6111   -1.4334 O   0  0
    2.6286   -0.5007   -2.2549 S   0  5
    1.5068    1.2554   -0.1218 N   0  3
    1.1247    2.5036   -0.3585 C   0  0
   -0.2094    2.8164   -0.5215 C   0  0
   -1.1584    1.8090   -0.4357 C   0  0
   -0.7262    0.5070   -0.1913 C   0  0
    0.6299    0.2651   -0.0327 C   0  0
   -1.6487   -0.5417   -0.1024 N   0  0
   -2.7580   -0.5301   -0.8679 C   0  0
   -2.9146    0.3426   -1.6955 O   0  0
   -3.8037   -1.6014   -0.6954 C   0  0
    3.2950    4.6325    1.4428 C   0  0
    0.1682    5.9697    7.6007 H   0  0
   -1.3164    5.9445    6.5904 H   0  0
   -0.6437    7.5092    7.1591 H   0  0
   -0.0929    7.1127    4.7628 H   0  0
    1.3925    7.1380    5.7725 H   0  0
    1.0101    2.4906    4.8615 H   0  0
    2.9816   -0.1980    3.5632 H   0  0
    1.5331   -0.2154    2.5723 H   0  0
    1.3415   -0.1269    4.4052 H   0  0
    5.3803    0.3955    0.0048 H   0  0
    5.2024   -1.6703   -1.9961 H   0  0
    5.4736   -0.1037   -2.8323 H   0  0
    7.1868   -1.2505   -0.5733 H   0  0
    7.1809   -1.7002   -3.4745 H   0  0
    8.3614   -2.3364   -2.2401 H   0  0
    9.8807   -0.9004   -3.2835 H   0  0
    8.5457    0.1274   -4.0053 H   0  0
    9.3295    1.5418   -2.2255 H   0  0
    9.6407    0.1190   -1.1257 H   0  0
    1.8811    3.2994   -0.4257 H   0  0
   -0.5169    3.8542   -0.7175 H   0  0
   -2.2285    2.0327   -0.5578 H   0  0
    0.9813   -0.7576    0.1688 H   0  0
   -1.4799   -1.3223    0.5480 H   0  0
   -4.0932   -1.5522    0.3647 H   0  0
   -3.2693   -2.5512   -0.8445 H   0  0
   -4.6645   -1.4929   -1.3716 H   0  0
    3.8686    5.2574    2.1432 H   0  0
    2.4186    5.2325    1.1566 H   0  0
    3.8812    4.2580    0.5907 H   0  0
  1  2  1  0
  2  3  1  0
  3  4  1  0
  4  5  2  0
  4  6  1  0
  6 10  1  0
  6  7  2  0
  7  8  1  0
  7 34  1  0
  8  9  2  0
  8 12  1  0
  9 10  1  0
  9 11  1  0
 12 13  2  0
 12 14  1  0
 14 15  2  0
 14 24  1  0
 15 16  1  0
 15 23  1  0
 16 17  1  0
 17 18  1  0
 18 22  1  0
 18 19  1  0
 19 20  1  0
 20 21  1  0
 21 22  1  0
 24 29  2  0
 24 25  1  0
 25 26  2  0
 26 27  1  0
 27 28  2  0
 28 29  1  0
 28 30  1  0
 30 31  1  0
 31 32  2  0
 31 33  1  0
  1 35  1  0
  1 36  1  0
  1 37  1  0
  2 38  1  0
  2 39  1  0
 10 40  1  0
 11 41  1  0
 11 42  1  0
 11 43  1  0
 16 44  1  0
 17 45  1  0
 17 46  1  0
 18 47  1  0
 19 48  1  0
 19 49  1  0
 20 50  1  0
 20 51  1  0
 21 52  1  0
 21 53  1  0
 25 54  1  0
 26 55  1  0
 27 56  1  0
 29 57  1  0
 30 58  1  0
 33 59  1  0
 33 60  1  0
 33 61  1  0
 34 62  1  0
 34 63  1  0
 34 64  1  0
M  CHG  2  23  -1  24   1
M  END
> <Name>
ZINC27072962

> <reference>
BDB50021143

> <quality>
0.821

> <status>
decoy

$$$$
ZINC09991018
  SciTegic06061311253D

 55 57  0  0  1  0            999 V2000
  -10.9855    5.0134   -0.4291 C   0  0
  -10.3050    3.6763   -0.5709 C   0  0
   -9.0072    3.3983   -0.3105 C   0  0
   -8.8878    2.0139   -0.6045 C   0  0
  -10.0707    1.6212   -0.9986 N   0  0
  -10.8678    2.5302   -0.9802 O   0  0
   -7.7376    1.2317   -0.4996 N   0  0
   -6.5822    1.7850   -0.0809 C   0  0
   -6.5425    2.9630    0.2047 O   0  0
   -5.3396    0.9399    0.0325 C   0  0  2  0  0  0
   -5.3842    0.1396    1.3357 C   0  0
   -3.8767    2.0125    0.0314 S   0  0
   -2.4820    0.8526    0.0185 C   0  0
   -1.1873    1.6238    0.0165 C   0  0
   -1.2037    2.8365    0.0232 O   0  0
   -0.0111    0.9658    0.0074 N   0  0
    1.2475    1.7155   -0.0006 C   0  0
    2.4061    0.7519   -0.0169 C   0  0
    3.0523    0.2118   -1.0789 C   0  0
    4.1015   -0.6593   -0.8531 C   0  0
    4.4533   -0.9476    0.4238 C   0  0
    3.2887    0.0317    1.3577 S   0  0
    5.7322   -2.0084    1.0099 S   0  0
    5.3582   -2.4098    2.3207 O   0  0
    5.9918   -2.9435   -0.0282 O   0  0
    7.0986   -1.0865    1.1690 N   0  0
    8.0477   -0.9400    0.0540 C   0  0
    8.3226    0.5588   -0.1475 C   0  0
    8.7159    1.1353    1.1003 O   0  0
    7.7117    1.0735    2.1159 C   0  0
    7.4027   -0.3944    2.4315 C   0  0
  -11.8338    4.7776    0.2303 H   0  0
  -11.4171    5.1656   -1.4294 H   0  0
  -10.3609    5.8477   -0.0772 H   0  0
   -8.2255    4.0851    0.0462 H   0  0
   -7.7713    0.2312   -0.7421 H   0  0
   -5.2876    0.2480   -0.8211 H   0  0
   -6.2709   -0.5114    1.3372 H   0  0
   -5.4360    0.8307    2.1900 H   0  0
   -4.4774   -0.4775    1.4191 H   0  0
   -2.5349    0.2239   -0.8826 H   0  0
   -2.5270    0.2150    0.9137 H   0  0
    0.0029   -0.0641    0.0061 H   0  0
    1.2890    2.3531   -0.8960 H   0  0
    1.3070    2.3440    0.9002 H   0  0
    2.7463    0.4630   -2.1052 H   0  0
    4.6429   -1.1118   -1.6970 H   0  0
    7.6108   -1.3614   -0.8633 H   0  0
    8.9871   -1.4581    0.2969 H   0  0
    9.1304    0.6887   -0.8827 H   0  0
    7.4103    1.0553   -0.5097 H   0  0
    8.0765    1.5749    3.0245 H   0  0
    6.7977    1.5723    1.7612 H   0  0
    6.5336   -0.4519    3.1033 H   0  0
    8.2774   -0.8607    2.9085 H   0  0
  1  2  1  0
  2  6  1  0
  2  3  2  0
  3  4  1  0
  4  5  2  0
  4  7  1  0
  5  6  1  0
  7  8  1  0
  8  9  2  0
  8 10  1  0
 10 11  1  0
 10 12  1  0
 12 13  1  0
 13 14  1  0
 14 15  2  0
 14 16  1  0
 16 17  1  0
 17 18  1  0
 18 22  1  0
 18 19  2  0
 19 20  1  0
 20 21  2  0
 21 22  1  0
 21 23  1  0
 23 24  2  0
 23 25  2  0
 23 26  1  0
 26 31  1  0
 26 27  1  0
 27 28  1  0
 28 29  1  0
 29 30  1  0
 30 31  1  0
  1 32  1  0
  1 33  1  0
  1 34  1  0
  3 35  1  0
  7 36  1  0
 10 37  1  0
 11 38  1  0
 11 39  1  0
 11 40  1  0
 13 41  1  0
 13 42  1  0
 16 43  1  0
 17 44  1  0
 17 45  1  0
 19 46  1  0
 20 47  1  0
 27 48  1  0
 27 49  1  0
 28 50  1  0
 28 51  1  0
 30 52  1  0
 30 53  1  0
 31 54  1  0
 31 55  1  0
M  END
> <Name>
ZINC09991018

> <reference>
BDB50021143

> <quality>
0.817

> <status>
decoy

$$$$
ZINC16785158
  SciTegic06061311253D

 53 54  0  0  0  0            999 V2000
   17.3961    0.8416   -2.2623 C   0  0
   17.0295    1.2298   -0.5287 S   0  0
   17.8295    2.3198   -0.0915 O   0  0
   16.9544    0.0340    0.2353 O   0  0
   15.3833    1.8579   -0.5436 C   0  0
   14.3139    0.9943   -0.3908 C   0  0
   13.0226    1.4832   -0.4016 C   0  0
   12.7982    2.8444   -0.5661 C   0  0
   13.8742    3.7082   -0.7250 C   0  0
   15.1636    3.2131   -0.7076 C   0  0
   13.6397    5.1582   -0.9067 N   0  0
   12.6967    5.5436   -1.5743 O   0  0
   14.3897    5.9660   -0.3886 O   0  0
   11.4933    3.3424   -0.5775 N   0  0
   10.3641    2.4435   -0.3264 C   0  0
    9.0568    3.2354   -0.3953 C   0  0
    7.9275    2.3365   -0.1442 N   0  0
    6.6684    2.8170   -0.1552 C   0  0
    6.4702    3.9936   -0.3728 O   0  0
    5.5067    1.8924    0.1030 C   0  0
    3.9568    2.8313    0.0215 S   0  0
    2.6745    1.5909    0.3496 C   0  0
    1.3186    2.2475    0.3105 C   0  0
    1.2264    3.4355    0.0836 O   0  0
    0.2085    1.5148    0.5277 N   0  0
   -1.0419    2.1415    0.5952 C   0  0
   -1.1510    3.4200    1.1257 C   0  0
   -2.3846    4.0382    1.1871 C   0  0
   -3.5136    3.3798    0.7296 C   0  0
   -3.4077    2.1026    0.2050 C   0  0
   -2.1752    1.4830    0.1371 C   0  0
   -4.7200    3.9844    0.7948 F   0  0
   18.4594    0.5765   -2.3575 H   0  0
   17.1840    1.7238   -2.8842 H   0  0
   16.7734   -0.0026   -2.5933 H   0  0
   14.4923   -0.0833   -0.2605 H   0  0
   12.1725    0.7957   -0.2801 H   0  0
   16.0166    3.8978   -0.8243 H   0  0
   11.3250    4.3416   -0.7624 H   0  0
   10.3514    1.6491   -1.0871 H   0  0
   10.4671    1.9935    0.6721 H   0  0
    9.0686    4.0298    0.3655 H   0  0
    8.9515    3.6852   -1.3936 H   0  0
    8.0958    1.3373    0.0407 H   0  0
    5.4939    1.0981   -0.6578 H   0  0
    5.6097    1.4423    1.1014 H   0  0
    2.8377    1.1471    1.3428 H   0  0
    2.7219    0.8029   -0.4164 H   0  0
    0.2798    0.4939    0.6440 H   0  0
   -0.2556    3.9402    1.4968 H   0  0
   -2.4702    5.0543    1.5997 H   0  0
   -4.3057    1.5812   -0.1579 H   0  0
   -2.0915    0.4685   -0.2797 H   0  0
  1  2  1  0
  2  3  2  0
  2  4  2  0
  2  5  1  0
  5 10  2  0
  5  6  1  0
  6  7  2  0
  7  8  1  0
  8  9  2  0
  8 14  1  0
  9 10  1  0
  9 11  1  0
 11 12  2  0
 11 13  2  0
 14 15  1  0
 15 16  1  0
 16 17  1  0
 17 18  1  0
 18 19  2  0
 18 20  1  0
 20 21  1  0
 21 22  1  0
 22 23  1  0
 23 24  2  0
 23 25  1  0
 25 26  1  0
 26 31  2  0
 26 27  1  0
 27 28  2  0
 28 29  1  0
 29 30  2  0
 29 32  1  0
 30 31  1  0
  1 33  1  0
  1 34  1  0
  1 35  1  0
  6 36  1  0
  7 37  1  0
 10 38  1  0
 14 39  1  0
 15 40  1  0
 15 41  1  0
 16 42  1  0
 16 43  1  0
 17 44  1  0
 20 45  1  0
 20 46  1  0
 22 47  1  0
 22 48  1  0
 25 49  1  0
 27 50  1  0
 28 51  1  0
 30 52  1  0
 31 53  1  0
M  END
> <Name>
ZINC16785158

> <reference>
BDB50021143

> <quality>
0.816

> <status>
decoy

$$$$
ZINC08870583
  SciTegic06061311253D

 57 57  0  0  1  0            999 V2000
   -1.5412    0.0953    4.2455 C   0  0
   -2.0517    1.5319    4.1171 C   0  0  1  0  0  0
   -1.4801    2.3800    5.2551 C   0  0
   -1.6285    2.0838    2.8425 O   0  0
   -2.4560    1.9128    1.7995 C   0  0
   -3.4994    1.3216    1.9467 O   0  0
   -2.0836    2.4583    0.4449 C   0  5
   -0.7902    1.8330   -0.0102 C   0  0
   -0.7027    0.4635   -0.1664 C   0  0
    0.4872   -0.1120   -0.5912 C   0  0
    1.5894    0.6893   -0.8591 C   0  0
    1.5018    2.0584   -0.7034 C   0  0
    0.3117    2.6341   -0.2780 C   0  0
    0.2228    4.0223   -0.1201 N   0  0
    1.0418    5.0270   -1.1507 S   0  0
    0.6555    6.3532   -0.8174 O   0  0
    2.3980    4.6028   -1.1390 O   0  0
    0.4681    4.7364   -2.6767 N   0  0
   -0.6732    5.4995   -3.1879 C   0  0
    1.1019    3.7161   -3.5156 C   0  0
    0.5761   -1.5003   -0.7491 N   0  0
    1.2575   -2.1360   -2.1180 S   0  0
    2.5209   -1.5045   -2.2736 O   0  0
    1.1174   -3.5469   -2.0238 O   0  0
    0.3257   -1.6523   -3.3987 N   0  0
    0.7025   -0.4666   -4.1722 C   0  0
   -0.8754   -2.4102   -3.7582 C   0  0
   -3.1736    2.1343   -0.5440 C   0  0
   -3.8991    1.1877   -0.3544 O   0  0
   -3.3582    2.9914   -1.7697 C   0  0  1  0  0  0
   -4.4236    2.4960   -2.5291 F   0  0
   -3.6341    4.3069   -1.3815 F   0  0
   -2.1881    2.9671   -2.5362 F   0  0
   -1.8615   -0.3238    5.2108 H   0  0
   -0.4426    0.0892    4.1903 H   0  0
   -1.9518   -0.5150    3.4276 H   0  0
   -3.1503    1.5369    4.1723 H   0  0
   -0.3815    2.3758    5.2007 H   0  0
   -1.8004    1.9628    6.2212 H   0  0
   -1.8468    3.4130    5.1634 H   0  0
   -1.5757   -0.1712    0.0458 H   0  0
    2.5322    0.2332   -1.1953 H   0  0
    2.3746    2.6931   -0.9163 H   0  0
   -0.3520    4.4187    0.6371 H   0  0
   -0.3665    6.5514   -3.0906 H   0  0
   -1.4680    5.3363   -2.4451 H   0  0
   -0.9857    5.2397   -4.2101 H   0  0
    1.0588    2.7978   -2.9116 H   0  0
    2.1603    4.0128   -3.5571 H   0  0
    0.6551    3.5913   -4.5130 H   0  0
    0.2177   -2.1262   -0.0138 H   0  0
    1.7307   -0.6710   -4.5055 H   0  0
    0.7707    0.3385   -3.4257 H   0  0
    0.0262   -0.2201   -5.0040 H   0  0
   -1.4754   -2.4282   -2.8364 H   0  0
   -0.5153   -3.4375   -3.9162 H   0  0
   -1.4323   -2.0166   -4.6213 H   0  0
  1  2  1  0
  2  3  1  0
  2  4  1  0
  4  5  1  0
  5  6  2  0
  5  7  1  0
  7  8  1  0
  7 28  1  0
  8 13  2  0
  8  9  1  0
  9 10  2  0
 10 11  1  0
 10 21  1  0
 11 12  2  0
 12 13  1  0
 13 14  1  0
 14 15  1  0
 15 16  2  0
 15 17  2  0
 15 18  1  0
 18 19  1  0
 18 20  1  0
 21 22  1  0
 22 23  2  0
 22 24  2  0
 22 25  1  0
 25 26  1  0
 25 27  1  0
 28 29  2  0
 28 30  1  0
 30 31  1  0
 30 32  1  0
 30 33  1  0
  1 34  1  0
  1 35  1  0
  1 36  1  0
  2 37  1  0
  3 38  1  0
  3 39  1  0
  3 40  1  0
  9 41  1  0
 11 42  1  0
 12 43  1  0
 14 44  1  0
 19 45  1  0
 19 46  1  0
 19 47  1  0
 20 48  1  0
 20 49  1  0
 20 50  1  0
 21 51  1  0
 26 52  1  0
 26 53  1  0
 26 54  1  0
 27 55  1  0
 27 56  1  0
 27 57  1  0
M  CHG  1   7  -1
M  END
> <Name>
ZINC08870583

> <reference>
BDB50021143

> <quality>
0.816

> <status>
decoy

$$$$
ZINC29449606
  SciTegic06061311253D

 71 73  0  0  1  0            999 V2000
    2.9921    3.5059   -1.0920 C   0  0
    3.9823    2.3423   -1.0103 C   0  0
    3.7237    1.5639    0.2083 N   0  3
    2.4061    0.9169    0.1501 C   0  0
    1.9665    0.5269    1.5627 C   0  0
    0.6739   -0.2445    1.4916 C   0  0
    0.1553   -0.4611    0.4169 O   0  0
    0.0913   -0.6890    2.6227 N   0  0
   -1.1622   -1.2975    2.5687 C   0  0
   -2.0375   -0.9930    1.5309 C   0  0
   -3.2735   -1.5963    1.4715 C   0  0
   -3.6531   -2.5068    2.4613 C   0  0
   -2.7738   -2.8061    3.5054 C   0  0
   -1.5370   -2.2035    3.5558 C   0  0
   -4.9797   -3.1513    2.4039 C   0  0
   -5.3085   -3.9436    3.2656 O   0  0
   -5.8266   -2.8616    1.3963 N   0  0
    4.7860    0.5753    0.4368 C   0  0
    6.0799    1.2881    0.7345 C   0  0
    6.1139    2.5003    0.7544 O   0  0
    7.1995    0.5785    0.9787 N   0  0
    8.3587    1.2274    1.3771 C   0  0
    8.4255    2.4096    2.1011 C   0  0
    9.8547    2.6943    2.2790 C   0  0
   10.5241    1.7048    1.6657 C   0  0
    9.6296    0.8217    1.1227 N   0  0
    9.9909   -0.3856    0.3757 C   0  0
   10.2309   -0.0248   -1.0916 C   0  0  2  0  0  0
   10.4937   -1.3071   -1.9101 C   0  0
   11.6142   -0.8498   -2.8857 C   0  0
   12.3938    0.1484   -1.9931 C   0  0
   11.3911    0.8078   -1.2038 O   0  0
   12.0243    1.5851    1.5873 C   0  0
   10.4542    3.8714    3.0044 C   0  0
    7.3248    3.1910    2.5790 C   0  0
    6.4516    3.8110    2.9582 N   0  0
    3.1128    4.1539   -0.2113 H   0  0
    1.9649    3.1133   -1.1196 H   0  0
    3.1852    4.0892   -2.0044 H   0  0
    5.0095    2.7348   -0.9827 H   0  0
    3.8607    1.6947   -1.8911 H   0  0
    3.7212    2.2159    1.0057 H   0  0
    1.6736    1.6147   -0.2817 H   0  0
    2.4667    0.0148   -0.4764 H   0  0
    1.8180    1.4350    2.1655 H   0  0
    2.7416   -0.0996    2.0282 H   0  0
    0.5720   -0.5792    3.5270 H   0  0
   -1.7416   -0.2694    0.7570 H   0  0
   -3.9615   -1.3619    0.6458 H   0  0
   -3.0695   -3.5224    4.2861 H   0  0
   -0.8444   -2.4386    4.3774 H   0  0
   -5.5481   -2.1904    0.6663 H   0  0
   -6.7524   -3.3114    1.3562 H   0  0
    4.9093   -0.0466   -0.4621 H   0  0
    4.5151   -0.0635    1.2903 H   0  0
    7.1942   -0.4457    0.8694 H   0  0
    9.1733   -1.1184    0.4433 H   0  0
   10.9081   -0.8193    0.8008 H   0  0
    9.3412    0.4995   -1.4704 H   0  0
    9.5929   -1.5949   -2.4720 H   0  0
   10.8624   -2.1103   -1.2552 H   0  0
   12.2551   -1.7004   -3.1608 H   0  0
   11.1813   -0.3312   -3.7539 H   0  0
   12.9226    0.8808   -2.6207 H   0  0
   13.0906   -0.3973   -1.3399 H   0  0
   12.3298    1.6234    2.6433 H   0  0
   12.3254    2.5474    1.1476 H   0  0
   12.4098    0.7092    1.0450 H   0  0
    9.9672    3.8041    3.9884 H   0  0
    9.9700    4.7203    2.4994 H   0  0
   11.5517    3.9333    3.0446 H   0  0
  1  2  1  0
  2  3  1  0
  3  4  1  0
  3 18  1  0
  4  5  1  0
  5  6  1  0
  6  7  2  0
  6  8  1  0
  8  9  1  0
  9 14  2  0
  9 10  1  0
 10 11  2  0
 11 12  1  0
 12 13  2  0
 12 15  1  0
 13 14  1  0
 15 16  2  0
 15 17  1  0
 18 19  1  0
 19 20  2  0
 19 21  1  0
 21 22  1  0
 22 26  1  0
 22 23  2  0
 23 24  1  0
 23 35  1  0
 24 25  2  0
 24 34  1  0
 25 26  1  0
 25 33  1  0
 26 27  1  0
 27 28  1  0
 28 32  1  0
 28 29  1  0
 29 30  1  0
 30 31  1  0
 31 32  1  0
 35 36  3  0
  1 37  1  0
  1 38  1  0
  1 39  1  0
  2 40  1  0
  2 41  1  0
  3 42  1  0
  4 43  1  0
  4 44  1  0
  5 45  1  0
  5 46  1  0
  8 47  1  0
 10 48  1  0
 11 49  1  0
 13 50  1  0
 14 51  1  0
 17 52  1  0
 17 53  1  0
 18 54  1  0
 18 55  1  0
 21 56  1  0
 27 57  1  0
 27 58  1  0
 28 59  1  0
 29 60  1  0
 29 61  1  0
 30 62  1  0
 30 63  1  0
 31 64  1  0
 31 65  1  0
 33 66  1  0
 33 67  1  0
 33 68  1  0
 34 69  1  0
 34 70  1  0
 34 71  1  0
M  CHG  1   3   1
M  END
> <Name>
ZINC29449606

> <reference>
BDB50021143

> <quality>
0.813

> <status>
decoy

$$$$
ZINC23605768
  SciTegic06061311253D

 52 54  0  0  1  0            999 V2000
   15.1287    4.3599   -0.8695 C   0  0
   14.0116    3.3246   -0.7244 C   0  0  2  0  0  0
   12.6852    3.9047   -1.1737 C   0  0
   12.4022    4.3152   -2.2788 O   0  0
   11.8857    3.8685   -0.0894 N   0  0
   12.5176    3.3561    0.9728 C   0  0
   12.0038    3.2254    2.0664 O   0  0
   13.7841    2.9983    0.6940 N   0  5
   10.5587    4.3175   -0.0746 N   0  0
    9.5463    3.4278   -0.0697 C   0  0
    9.7840    2.2386   -0.0780 O   0  0
    8.1188    3.9108   -0.0538 C   0  0
    7.2136    2.7590   -0.0512 N   0  0
    5.8795    2.9503   -0.0377 C   0  0
    5.4285    4.0761   -0.0278 O   0  0
    4.9483    1.7655   -0.0350 C   0  0
    3.5607    2.2350   -0.0196 N   0  0
    2.5483    1.3453   -0.0147 C   0  0
    2.7869    0.1519   -0.0230 O   0  0
    1.1599    1.8151    0.0007 C   0  0
   -0.0126    1.0758    0.0080 C   0  0
   -1.1931    1.7761    0.0172 C   0  0
   -1.1586    3.1345    0.0300 C   0  0
    0.5386    3.4874    0.0157 S   0  0
   14.3390    2.0802   -1.5088 C   0  0
   13.8830    1.9427   -2.8069 C   0  0
   14.1866    0.8055   -3.5300 C   0  0
   14.9400   -0.2041   -2.9488 C   0  0
   15.3915   -0.0662   -1.6443 C   0  0
   15.0900    1.0755   -0.9273 C   0  0
   15.2356   -1.3261   -3.6564 O   0  0
   14.7377   -1.3997   -4.9938 C   0  0  1  0  0  0
   13.3409   -1.3235   -4.9763 F   0  0
   15.2534   -0.3364   -5.7425 F   0  0
   16.0529    3.9523   -0.4340 H   0  0
   14.8442    5.2719   -0.3243 H   0  0
   15.2891    4.5951   -1.9320 H   0  0
   10.3568    5.3275   -0.0675 H   0  0
    7.9459    4.5144    0.8494 H   0  0
    7.9281    4.5241   -0.9468 H   0  0
    7.5967    1.8029   -0.0597 H   0  0
    5.1205    1.1616   -0.9381 H   0  0
    5.1368    1.1516    0.8581 H   0  0
    3.3588    3.2450   -0.0125 H   0  0
    0.0023   -0.0241    0.0065 H   0  0
   -2.1558    1.2439    0.0142 H   0  0
   -2.0030    3.8393    0.0456 H   0  0
   13.2780    2.7395   -3.2642 H   0  0
   13.8313    0.7005   -4.5657 H   0  0
   15.9891   -0.8653   -1.1813 H   0  0
   15.4477    1.1853    0.1071 H   0  0
   15.0472   -2.3524   -5.4484 H   0  0
  1  2  1  0
  2  8  1  0
  2  3  1  0
  2 25  1  0
  3  4  2  0
  3  5  1  0
  5  6  1  0
  5  9  1  0
  6  7  2  0
  6  8  1  0
  9 10  1  0
 10 11  2  0
 10 12  1  0
 12 13  1  0
 13 14  1  0
 14 15  2  0
 14 16  1  0
 16 17  1  0
 17 18  1  0
 18 19  2  0
 18 20  1  0
 20 24  1  0
 20 21  2  0
 21 22  1  0
 22 23  2  0
 23 24  1  0
 25 30  2  0
 25 26  1  0
 26 27  2  0
 27 28  1  0
 28 29  2  0
 28 31  1  0
 29 30  1  0
 31 32  1  0
 32 33  1  0
 32 34  1  0
  1 35  1  0
  1 36  1  0
  1 37  1  0
  9 38  1  0
 12 39  1  0
 12 40  1  0
 13 41  1  0
 16 42  1  0
 16 43  1  0
 17 44  1  0
 21 45  1  0
 22 46  1  0
 23 47  1  0
 26 48  1  0
 27 49  1  0
 29 50  1  0
 30 51  1  0
 32 52  1  0
M  CHG  1   8  -1
M  END
> <Name>
ZINC23605768

> <reference>
BDB50021143

> <quality>
0.812

> <status>
decoy

$$$$
ZINC08616391
  SciTegic06061311253D

 67 69  0  0  1  0            999 V2000
    0.5781   -4.7738    5.9361 C   0  0
    0.1766   -4.8353    4.4610 C   0  0
   -0.0310   -3.4886    3.9594 O   0  0
   -0.3906   -3.3665    2.6719 C   0  0
   -0.5274   -4.3523    1.9868 O   0  0
   -0.6236   -1.9999    2.0810 C   0  0
   -1.0199   -2.1412    0.6100 C   0  0
   -1.2565   -0.7538    0.0100 C   0  0  2  0  0  0
   -1.7650   -0.8968   -1.4014 C   0  0
   -1.1401   -0.4214   -2.3197 O   0  0
   -2.9120   -1.5525   -1.6383 O   0  0
   -3.3411   -1.6515   -3.0220 C   0  0
   -4.6581   -2.4269   -3.0933 C   0  0
    0.0021   -0.0041    0.0020 N   0  0
   -0.0162    1.3436    0.0094 C   0  0
   -1.0774    1.9372    0.0177 O   0  0
    1.2512    2.0985    0.0014 C   0  0
    2.4720    1.4175   -0.0082 C   0  0
    3.6525    2.1246   -0.0220 C   0  0
    3.6319    3.5166   -0.0143 C   0  0
    2.4178    4.1976    0.0015 C   0  0
    1.2339    3.4963    0.0091 C   0  0
    4.8265    4.2281   -0.0228 N   0  0
    6.1050    3.5130   -0.0394 C   0  0
    7.2370    4.5078   -0.0459 C   0  0
    7.9001    4.9529    1.0606 N   0  0
    8.8484    5.8332    0.6445 C   0  0
    8.7315    5.9114   -0.7381 C   0  0
    7.7288    5.0787   -1.1073 N   0  0
    9.6384    6.8035   -1.4622 C   0  0
    9.5753    6.9059   -2.6736 O   0  0
   10.5475    7.5099   -0.7559 N   0  0
   10.6204    7.3991    0.5810 C   0  0
   11.4532    8.0525    1.1793 O   0  0
    9.8050    6.5905    1.2806 N   0  0
    9.9364    6.5153    2.7378 C   0  0
   11.4668    8.4094   -1.4573 C   0  0
   -0.2208   -4.2869    6.5146 H   0  0
    1.5090   -4.1970    6.0401 H   0  0
    0.7355   -5.7938    6.3168 H   0  0
    0.9761   -5.3220    3.8832 H   0  0
   -0.7542   -5.4121    4.3569 H   0  0
   -1.4316   -1.4953    2.6310 H   0  0
    0.2984   -1.4047    2.1560 H   0  0
   -0.2121   -2.6454    0.0593 H   0  0
   -1.9425   -2.7353    0.5331 H   0  0
   -2.0005   -0.2148    0.6149 H   0  0
   -2.5739   -2.1786   -3.6082 H   0  0
   -3.4878   -0.6420   -3.4337 H   0  0
   -5.4268   -1.9005   -2.5085 H   0  0
   -4.5130   -3.4367   -2.6820 H   0  0
   -4.9837   -2.5023   -4.1413 H   0  0
    0.9010   -0.5069   -0.0093 H   0  0
    2.4890    0.3176   -0.0047 H   0  0
    4.6134    1.5894   -0.0391 H   0  0
    2.4049    5.2975    0.0079 H   0  0
    0.2749    4.0350    0.0212 H   0  0
    4.8125    5.2580   -0.0174 H   0  0
    6.1814    2.8773    0.8551 H   0  0
    6.1639    2.8858   -0.9411 H   0  0
    7.7155    4.6726    2.0344 H   0  0
   10.1062    5.4510    2.9577 H   0  0
    8.9425    6.7754    3.1310 H   0  0
   10.7295    7.1588    3.1463 H   0  0
   10.8228    9.1023   -2.0187 H   0  0
   11.9870    7.7773   -2.1920 H   0  0
   12.1654    8.9360   -0.7904 H   0  0
  1  2  1  0
  2  3  1  0
  3  4  1  0
  4  5  2  0
  4  6  1  0
  6  7  1  0
  7  8  1  0
  8  9  1  0
  8 14  1  0
  9 10  2  0
  9 11  1  0
 11 12  1  0
 12 13  1  0
 14 15  1  0
 15 16  2  0
 15 17  1  0
 17 22  2  0
 17 18  1  0
 18 19  2  0
 19 20  1  0
 20 21  2  0
 20 23  1  0
 21 22  1  0
 23 24  1  0
 24 25  1  0
 25 29  2  0
 25 26  1  0
 26 27  1  0
 27 35  1  0
 27 28  2  0
 28 29  1  0
 28 30  1  0
 30 31  2  0
 30 32  1  0
 32 33  1  0
 32 37  1  0
 33 34  2  0
 33 35  1  0
 35 36  1  0
  1 38  1  0
  1 39  1  0
  1 40  1  0
  2 41  1  0
  2 42  1  0
  6 43  1  0
  6 44  1  0
  7 45  1  0
  7 46  1  0
  8 47  1  0
 12 48  1  0
 12 49  1  0
 13 50  1  0
 13 51  1  0
 13 52  1  0
 14 53  1  0
 18 54  1  0
 19 55  1  0
 21 56  1  0
 22 57  1  0
 23 58  1  0
 24 59  1  0
 24 60  1  0
 26 61  1  0
 36 62  1  0
 36 63  1  0
 36 64  1  0
 37 65  1  0
 37 66  1  0
 37 67  1  0
M  END
> <Name>
ZINC08616391

> <reference>
BDB50021143

> <quality>
0.811

> <status>
decoy

$$$$
ZINC21761996
  SciTegic06061311253D

 56 59  0  0  1  0            999 V2000
    1.2290    7.0239    6.4685 C   0  0
    1.7804    7.6996    5.3365 O   0  0
    2.1576    8.9829    5.5131 C   0  0
    2.0214    9.5129    6.5998 O   0  0
    2.7298    9.7364    4.3990 C   0  0
    3.1235   11.0757    4.5833 C   0  0
    3.6700   11.8719    3.6301 N   0  0
    3.9182   13.1185    4.1928 C   0  0
    4.4570   14.2952    3.6910 C   0  0
    4.5882   15.3964    4.5127 C   0  0
    4.1854   15.3327    5.8362 C   0  0
    3.6487   14.1674    6.3454 C   0  0
    3.5120   13.0542    5.5276 C   0  0
    3.0214   11.7716    5.7437 N   0  0
    2.8872    9.1236    3.1426 C   0  0
    3.3630    9.7500    2.2164 O   0  0
    2.4660    7.6901    2.9453 C   0  0
    2.7933    7.1950    1.2354 S   0  0
    2.2231    5.5285    1.2850 C   0  0
    1.7169    4.9073    2.3249 N   0  0
    1.4020    3.7033    2.0035 N   0  0
    1.6946    3.4831    0.7531 C   0  0
    2.2246    4.6388    0.2493 N   0  0
    2.6962    4.8734   -1.1177 C   0  0
    1.5575    5.3872   -1.9606 C   0  0
    1.6838    6.5150   -2.6149 C   0  0
    1.4823    2.1953   -0.0003 C   0  0  1  0  0  0
    2.2955    1.0736    0.6667 C   0  0
    1.8215   -0.2851    0.0762 C   0  0
    0.0021   -0.0041    0.0020 S   0  0
   -0.5888   -0.4810    1.2031 O   0  0
   -0.4873   -0.4662   -1.2495 O   0  0
   -0.0229    1.8349    0.0121 C   0  0
    0.3624    7.6190    6.7924 H   0  0
    1.9899    7.0761    7.2611 H   0  0
    0.9461    5.9843    6.2466 H   0  0
    3.8671   11.5993    2.6566 H   0  0
    4.7788   14.3500    2.6405 H   0  0
    5.0147   16.3289    4.1145 H   0  0
    4.2937   16.2147    6.4845 H   0  0
    3.3300   14.1210    7.3972 H   0  0
    2.6450   11.4113    6.6322 H   0  0
    3.0351    7.0431    3.6290 H   0  0
    1.3909    7.5903    3.1557 H   0  0
    3.0711    3.9313   -1.5442 H   0  0
    3.5062    5.6176   -1.1037 H   0  0
    0.6202    4.8152   -2.0264 H   0  0
    2.6211    7.0870   -2.5491 H   0  0
    0.8526    6.8900   -3.2301 H   0  0
    1.8170    2.3145   -1.0413 H   0  0
    3.3654    1.2155    0.4540 H   0  0
    2.1216    1.0847    1.7528 H   0  0
    2.2203   -0.4310   -0.9385 H   0  0
    2.0454   -1.1120    0.7662 H   0  0
   -0.5175    2.2066   -0.8974 H   0  0
   -0.4991    2.1970    0.9352 H   0  0
  1  2  1  0
  2  3  1  0
  3  4  2  0
  3  5  1  0
  5  6  2  0
  5 15  1  0
  6 14  1  0
  6  7  1  0
  7  8  1  0
  8 13  2  0
  8  9  1  0
  9 10  2  0
 10 11  1  0
 11 12  2  0
 12 13  1  0
 13 14  1  0
 15 16  2  0
 15 17  1  0
 17 18  1  0
 18 19  1  0
 19 23  1  0
 19 20  2  0
 20 21  1  0
 21 22  2  0
 22 23  1  0
 22 27  1  0
 23 24  1  0
 24 25  1  0
 25 26  2  0
 27 33  1  0
 27 28  1  0
 28 29  1  0
 29 30  1  0
 30 31  2  0
 30 32  2  0
 30 33  1  0
  1 34  1  0
  1 35  1  0
  1 36  1  0
  7 37  1  0
  9 38  1  0
 10 39  1  0
 11 40  1  0
 12 41  1  0
 14 42  1  0
 17 43  1  0
 17 44  1  0
 24 45  1  0
 24 46  1  0
 25 47  1  0
 26 48  1  0
 26 49  1  0
 27 50  1  0
 28 51  1  0
 28 52  1  0
 29 53  1  0
 29 54  1  0
 33 55  1  0
 33 56  1  0
M  END
> <Name>
ZINC21761996

> <reference>
BDB50021143

> <quality>
0.810

> <status>
decoy

$$$$
ZINC18071929
  SciTegic06061311253D

 63 64  0  0  1  0            999 V2000
   16.8751   -7.3442   -6.2240 C   0  0
   16.0247   -6.2132   -5.6422 C   0  0
   14.7413   -6.7230   -5.2746 O   0  0
   13.8573   -5.8404   -4.7373 C   0  0
   12.5936   -6.2684   -4.3583 C   0  0
   11.6959   -5.3721   -3.8117 C   0  0
   12.0584   -4.0442   -3.6413 C   0  0
   13.3203   -3.6151   -4.0251 C   0  0
   14.2195   -4.5123   -4.5678 C   0  0
   11.1747   -3.1619   -3.1031 O   0  0
    9.8530   -3.6415   -2.8479 C   0  0  1  0  0  0
    9.8157   -4.3319   -1.4830 C   0  0
    8.8889   -2.4832   -2.8514 C   0  0
    9.3040   -1.3490   -2.9620 O   0  0
    7.5654   -2.7077   -2.7316 N   0  0
    6.6691   -1.6309   -2.7348 N   0  0
    5.3456   -1.8554   -2.6150 C   0  0
    4.9295   -2.9924   -2.5041 O   0  0
    4.4013   -0.7209   -2.6184 C   0  0
    4.8777    0.5867   -2.7458 C   0  0
    3.9936    1.6422   -2.7490 C   0  0
    2.6288    1.4085   -2.6252 C   0  0
    2.1511    0.1096   -2.4988 C   0  0
    3.0293   -0.9513   -2.4899 C   0  0
    0.4201   -0.1799   -2.3423 S   0  0
    0.2539   -1.5845   -2.2060 O   0  0
   -0.2113    0.5653   -3.3744 O   0  0
   -0.0616    0.4950   -0.9088 N   0  0
    0.0138    1.9458   -0.7203 C   0  0
   -0.8163    2.3452    0.5013 C   0  0
   -0.2344    1.7804    1.6779 O   0  0
   -0.9368    2.0946    2.8820 C   0  0
    1.7606    2.4516   -2.6283 O   0  0
    2.3191    3.7601   -2.7618 C   0  0
   16.3774   -7.7584   -7.1133 H   0  0
   16.9980   -8.1366   -5.4710 H   0  0
   17.8632   -6.9525   -6.5072 H   0  0
   16.5229   -5.7999   -4.7529 H   0  0
   15.9017   -5.4208   -6.3952 H   0  0
   12.3063   -7.3216   -4.4930 H   0  0
   10.6935   -5.7115   -3.5116 H   0  0
   13.6050   -2.5603   -3.8973 H   0  0
   15.2228   -4.1735   -4.8655 H   0  0
    9.5661   -4.3597   -3.6301 H   0  0
   10.1022   -3.6143   -0.7000 H   0  0
   10.5190   -5.1777   -1.4794 H   0  0
    8.7985   -4.7013   -1.2859 H   0  0
    7.2129   -3.6709   -2.6377 H   0  0
    7.0216   -0.6677   -2.8287 H   0  0
    5.9575    0.7724   -2.8434 H   0  0
    4.3677    2.6717   -2.8496 H   0  0
    2.6510   -1.9785   -2.3818 H   0  0
   -0.4142   -0.1053   -0.1497 H   0  0
   -0.3808    2.4536   -1.6127 H   0  0
    1.0617    2.2414   -0.5634 H   0  0
   -0.8329    3.4414    0.5910 H   0  0
   -1.8443    1.9711    0.3857 H   0  0
   -1.9682    1.7294    2.7691 H   0  0
   -0.9639    3.1904    2.9738 H   0  0
   -0.4556    1.6407    3.7609 H   0  0
    2.8922    3.7575   -3.7007 H   0  0
    3.0314    3.8785   -1.9320 H   0  0
    1.5550    4.5514   -2.7559 H   0  0
  1  2  1  0
  2  3  1  0
  3  4  1  0
  4  9  2  0
  4  5  1  0
  5  6  2  0
  6  7  1  0
  7  8  2  0
  7 10  1  0
  8  9  1  0
 10 11  1  0
 11 12  1  0
 11 13  1  0
 13 14  2  0
 13 15  1  0
 15 16  1  0
 16 17  1  0
 17 18  2  0
 17 19  1  0
 19 24  2  0
 19 20  1  0
 20 21  2  0
 21 22  1  0
 22 23  2  0
 22 33  1  0
 23 24  1  0
 23 25  1  0
 25 26  2  0
 25 27  2  0
 25 28  1  0
 28 29  1  0
 29 30  1  0
 30 31  1  0
 31 32  1  0
 33 34  1  0
  1 35  1  0
  1 36  1  0
  1 37  1  0
  2 38  1  0
  2 39  1  0
  5 40  1  0
  6 41  1  0
  8 42  1  0
  9 43  1  0
 11 44  1  0
 12 45  1  0
 12 46  1  0
 12 47  1  0
 15 48  1  0
 16 49  1  0
 20 50  1  0
 21 51  1  0
 24 52  1  0
 28 53  1  0
 29 54  1  0
 29 55  1  0
 30 56  1  0
 30 57  1  0
 32 58  1  0
 32 59  1  0
 32 60  1  0
 34 61  1  0
 34 62  1  0
 34 63  1  0
M  END
> <Name>
ZINC18071929

> <reference>
BDB50021143

> <quality>
0.809

> <status>
decoy

$$$$
ZINC11483791
  SciTegic06061311253D

 55 56  0  0  0  0            999 V2000
   -2.8543    8.5622   -9.0065 C   0  0
   -3.3030    8.7220  -10.3042 C   0  0
   -4.6582    8.6920  -10.5755 C   0  0
   -5.5643    8.4983   -9.5497 C   0  0
   -5.1153    8.3342   -8.2527 C   0  0
   -3.7602    8.3633   -7.9815 C   0  0
   -3.2707    8.1843   -6.5675 C   0  0
   -3.0434    6.7609   -6.3059 N   0  0
   -2.6008    6.3600   -5.0976 C   0  0
   -2.3906    7.1777   -4.2269 O   0  0
   -2.3670    4.8958   -4.8286 C   0  0
   -1.8911    4.7218   -3.4540 N   0  0
   -1.6142    3.4879   -2.9878 C   0  0
   -1.7590    2.5216   -3.7063 O   0  0
   -1.1248    3.3089   -1.5738 C   0  0
   -0.8975    1.8855   -1.3122 N   0  0
   -0.0172    1.4168    0.0098 S   0  0
    0.0021   -0.0041    0.0020 O   0  0
    1.1718    2.1948    0.0027 O   0  0
   -0.9267    1.9002    1.4394 C   0  0
   -0.7144    3.1464    2.0018 C   0  0
   -1.4265    3.5333    3.1181 C   0  0
   -2.3556    2.6597    3.6868 C   0  0
   -2.5610    1.4015    3.1172 C   0  0
   -1.8458    1.0297    1.9978 C   0  0
   -3.0948    3.0526    4.8487 C   0  0
   -3.6812    3.3643    5.7703 N   0  0
   -5.1476    8.8700  -11.9897 C   0  0
   -5.3705   10.2581  -12.2455 O   0  0
   -5.8389   10.5379  -13.5662 C   0  0
   -6.0419   12.0458  -13.7266 C   0  0  1  0  0  0
   -4.8266   12.7053  -13.5133 F   0  0
   -6.5004   12.3197  -15.0196 F   0  0
   -6.9842   12.4914  -12.7935 F   0  0
   -1.7764    8.5933   -8.7895 H   0  0
   -2.5818    8.8730  -11.1209 H   0  0
   -6.6427    8.4747   -9.7655 H   0  0
   -5.8364    8.1805   -7.4364 H   0  0
   -2.3288    8.7363   -6.4328 H   0  0
   -4.0251    8.5694   -5.8656 H   0  0
   -3.2218    6.0665   -7.0454 H   0  0
   -3.3087    4.3433   -4.9628 H   0  0
   -1.6120    4.5092   -5.5289 H   0  0
   -1.7681    5.5425   -2.8438 H   0  0
   -1.8792    3.6940   -0.8720 H   0  0
   -0.1829    3.8609   -1.4390 H   0  0
   -1.2852    1.1762   -1.9506 H   0  0
    0.0240    3.8302    1.5577 H   0  0
   -1.2628    4.5276    3.5592 H   0  0
   -3.2914    0.7084    3.5601 H   0  0
   -2.0066    0.0388    1.5480 H   0  0
   -4.3920    8.4853  -12.6905 H   0  0
   -6.0888    8.3171  -12.1255 H   0  0
   -6.7946   10.0201  -13.7349 H   0  0
   -5.0978   10.1882  -14.3000 H   0  0
  1  6  2  0
  1  2  1  0
  2  3  2  0
  3  4  1  0
  3 28  1  0
  4  5  2  0
  5  6  1  0
  6  7  1  0
  7  8  1  0
  8  9  1  0
  9 10  2  0
  9 11  1  0
 11 12  1  0
 12 13  1  0
 13 14  2  0
 13 15  1  0
 15 16  1  0
 16 17  1  0
 17 18  2  0
 17 19  2  0
 17 20  1  0
 20 25  2  0
 20 21  1  0
 21 22  2  0
 22 23  1  0
 23 24  2  0
 23 26  1  0
 24 25  1  0
 26 27  3  0
 28 29  1  0
 29 30  1  0
 30 31  1  0
 31 32  1  0
 31 33  1  0
 31 34  1  0
  1 35  1  0
  2 36  1  0
  4 37  1  0
  5 38  1  0
  7 39  1  0
  7 40  1  0
  8 41  1  0
 11 42  1  0
 11 43  1  0
 12 44  1  0
 15 45  1  0
 15 46  1  0
 16 47  1  0
 21 48  1  0
 22 49  1  0
 24 50  1  0
 25 51  1  0
 28 52  1  0
 28 53  1  0
 30 54  1  0
 30 55  1  0
M  END
> <Name>
ZINC11483791

> <reference>
BDB50021143

> <quality>
0.808

> <status>
decoy

$$$$
ZINC20919655
  SciTegic06061311253D

 56 58  0  0  0  0            999 V2000
   13.7742    5.8795   -1.5436 C   0  0
   13.3010    5.7206   -0.0974 C   0  0
   11.8616    5.2742   -0.0859 C   0  0
   11.3529    4.0583   -0.0871 N   0  0
   10.1027    3.8838   -0.0761 N   0  0
    9.2559    4.8990   -0.0630 C   0  0
   10.3585    6.2441   -0.0745 S   0  0
    7.8652    4.8931   -0.0497 N   0  0
    7.1963    3.7230   -0.0487 C   0  0
    7.8072    2.6753   -0.0593 O   0  0
    5.6894    3.7165   -0.0344 C   0  0
    5.0921    2.0037   -0.0365 S   0  0
    3.3375    2.1642   -0.0190 C   0  0
    2.6665    3.2911   -0.0070 N   0  0
    1.3001    2.9814   -0.0001 N   0  0
    1.1808    1.6758   -0.0002 C   0  0
    2.4373    1.1367   -0.0151 N   0  0
    2.7394   -0.1954   -0.0240 N   0  0
   -0.0111    0.9658    0.0074 N   0  0
   -1.2338    1.6498    0.0169 N   0  0
   -2.3495    0.9852    0.0185 C   0  0
   -3.6360    1.7048    0.0286 C   0  0
   -3.6566    3.1018    0.0421 C   0  0
   -4.8656    3.7742    0.0475 C   0  0
   -6.0601    3.0608    0.0489 C   0  0
   -6.0429    1.6697    0.0403 C   0  0
   -4.8372    0.9913    0.0304 C   0  0
   -7.2126    0.9759    0.0420 O   0  0
   -7.1211   -0.4502    0.0333 C   0  0
   -7.2475    3.7250    0.0590 O   0  0
   -7.8071    4.0339    1.3371 C   0  0
   -4.8866    5.1340    0.0564 O   0  0
   -3.6235    5.8023    0.0544 C   0  0
   13.1538    6.6316   -2.0529 H   0  0
   13.6856    4.9163   -2.0674 H   0  0
   14.8248    6.2053   -1.5527 H   0  0
   13.9217    4.9682    0.4111 H   0  0
   13.3896    6.6838    0.4265 H   0  0
    7.3465    5.7829   -0.0406 H   0  0
    5.3289    4.2288    0.8698 H   0  0
    5.3108    4.2371   -0.9264 H   0  0
    3.7432   -0.4260   -0.0346 H   0  0
    2.0216   -0.9341   -0.0205 H   0  0
    0.0029   -0.0641    0.0061 H   0  0
   -2.3345   -0.1147    0.0123 H   0  0
   -2.7125    3.6664    0.0484 H   0  0
   -4.8243   -0.1086    0.0240 H   0  0
   -6.5291   -0.7275    0.9180 H   0  0
   -6.5378   -0.7172   -0.8602 H   0  0
   -8.1061   -0.9398    0.0353 H   0  0
   -7.0503    4.6276    1.8707 H   0  0
   -7.9185    3.0757    1.8657 H   0  0
   -8.7649    4.5699    1.2639 H   0  0
   -3.0885    5.4497   -0.8397 H   0  0
   -3.0796    5.4382    0.9385 H   0  0
   -3.7218    6.8979    0.0620 H   0  0
  1  2  1  0
  2  3  1  0
  3  7  1  0
  3  4  2  0
  4  5  1  0
  5  6  2  0
  6  7  1  0
  6  8  1  0
  8  9  1  0
  9 10  2  0
  9 11  1  0
 11 12  1  0
 12 13  1  0
 13 17  1  0
 13 14  2  0
 14 15  1  0
 15 16  2  0
 16 17  1  0
 16 19  1  0
 17 18  1  0
 19 20  1  0
 20 21  2  0
 21 22  1  0
 22 27  2  0
 22 23  1  0
 23 24  2  0
 24 25  1  0
 24 32  1  0
 25 26  2  0
 25 30  1  0
 26 27  1  0
 26 28  1  0
 28 29  1  0
 30 31  1  0
 32 33  1  0
  1 34  1  0
  1 35  1  0
  1 36  1  0
  2 37  1  0
  2 38  1  0
  8 39  1  0
 11 40  1  0
 11 41  1  0
 18 42  1  0
 18 43  1  0
 19 44  1  0
 21 45  1  0
 23 46  1  0
 27 47  1  0
 29 48  1  0
 29 49  1  0
 29 50  1  0
 31 51  1  0
 31 52  1  0
 31 53  1  0
 33 54  1  0
 33 55  1  0
 33 56  1  0
M  END
> <Name>
ZINC20919655

> <reference>
BDB50021143

> <quality>
0.808

> <status>
decoy

$$$$
ZINC30591738
  SciTegic06061311253D

 70 73  0  0  0  0            999 V2000
   -2.2969   -7.1906   -2.3796 C   0  0
   -0.9296   -6.5050   -2.3451 C   0  0
   -1.1199   -4.9869   -2.3521 C   0  0
    0.2475   -4.3014   -2.3175 C   0  0
    0.0652   -2.8478   -2.3242 N   0  0
    0.0568   -2.1322   -1.1082 C   0  0
    1.1950   -2.0542   -0.3319 C   0  0
    1.1542   -1.3538    0.8513 N   0  0
    0.0210   -0.7428    1.2418 C   0  0
    0.0066   -0.1247    2.2890 O   0  0
   -1.0962   -0.8034    0.4957 N   0  0
   -1.1110   -1.4810   -0.6689 C   0  0
   -2.1296   -1.5299   -1.3375 O   0  0
    2.3535   -1.2678    1.6882 C   0  0
    2.3681   -2.4327    2.6799 C   0  0
    3.6206   -2.3428    3.5540 C   0  0
    2.3544   -2.6732   -0.7337 N   0  0
   -0.0946   -2.1932   -3.4933 C   0  0
   -0.1553   -0.9815   -3.5067 O   0  0
   -0.1976   -2.9672   -4.7822 C   0  0
   -0.3658   -2.0322   -5.9027 N   0  0
   -1.6548   -1.3318   -5.8152 C   0  0
   -1.7568   -0.3127   -6.9525 C   0  0
   -1.6238   -1.0059   -8.2414 N   0  0
   -0.3349   -1.7063   -8.3289 C   0  0
   -0.2328   -2.7254   -7.1916 C   0  0
   -1.7815   -0.1294   -9.2918 C   0  0
   -0.7952    0.0066  -10.2497 C   0  0
   -0.9926    0.8988  -11.3005 C   0  0
   -2.0983    1.6096  -11.3730 N   0  0
   -3.0597    1.4928  -10.4499 C   0  0
   -2.9130    0.6261   -9.4038 N   0  0
   -4.0749    0.7388   -8.6298 N   0  0
   -4.8405    1.6282   -9.2135 C   0  0
   -4.2400    2.0855  -10.3053 N   0  0
    0.0693    1.0563  -12.3582 C   0  0
   -2.8343   -6.8934   -3.2922 H   0  0
   -2.8809   -6.8909   -1.4969 H   0  0
   -2.1608   -8.2821   -2.3746 H   0  0
   -0.3930   -6.8025   -1.4321 H   0  0
   -0.3456   -6.8046   -3.2278 H   0  0
   -1.6560   -4.6886   -3.2651 H   0  0
   -1.7029   -4.6852   -1.4694 H   0  0
    0.8316   -4.6010   -3.2002 H   0  0
    0.7840   -4.5989   -1.4045 H   0  0
   -1.9503   -0.3264    0.8181 H   0  0
    3.2493   -1.3176    1.0517 H   0  0
    2.3488   -0.3168    2.2409 H   0  0
    2.3740   -3.3847    2.1289 H   0  0
    1.4727   -2.3833    3.3170 H   0  0
    3.6158   -1.3917    4.1067 H   0  0
    4.5169   -2.3922    2.9183 H   0  0
    3.6317   -3.1801    4.2673 H   0  0
    2.3723   -3.1981   -1.6198 H   0  0
    3.2022   -2.6130   -0.1519 H   0  0
   -1.0639   -3.6436   -4.7368 H   0  0
    0.7197   -3.5557   -4.9310 H   0  0
   -1.7257   -0.8106   -4.8491 H   0  0
   -2.4748   -2.0599   -5.9011 H   0  0
   -2.7332    0.1918   -6.9068 H   0  0
   -0.9534    0.4319   -6.8526 H   0  0
   -0.2651   -2.2274   -9.2951 H   0  0
    0.4858   -0.9789   -8.2435 H   0  0
    0.7437   -3.2297   -7.2381 H   0  0
   -1.0362   -3.4698   -7.2938 H   0  0
    0.1322   -0.5812  -10.1833 H   0  0
   -5.8298    1.9470   -8.8535 H   0  0
    0.2254    0.0448  -12.7612 H   0  0
    0.9820    1.3327  -11.8099 H   0  0
   -0.1879    1.7854  -13.1407 H   0  0
  1  2  1  0
  2  3  1  0
  3  4  1  0
  4  5  1  0
  5  6  1  0
  5 18  1  0
  6 12  1  0
  6  7  2  0
  7  8  1  0
  7 17  1  0
  8  9  1  0
  8 14  1  0
  9 10  2  0
  9 11  1  0
 11 12  1  0
 12 13  2  0
 14 15  1  0
 15 16  1  0
 18 19  2  0
 18 20  1  0
 20 21  1  0
 21 26  1  0
 21 22  1  0
 22 23  1  0
 23 24  1  0
 24 25  1  0
 24 27  1  0
 25 26  1  0
 27 32  1  0
 27 28  2  0
 28 29  1  0
 29 30  2  0
 29 36  1  0
 30 31  1  0
 31 35  2  0
 31 32  1  0
 32 33  1  0
 33 34  2  0
 34 35  1  0
  1 37  1  0
  1 38  1  0
  1 39  1  0
  2 40  1  0
  2 41  1  0
  3 42  1  0
  3 43  1  0
  4 44  1  0
  4 45  1  0
 11 46  1  0
 14 47  1  0
 14 48  1  0
 15 49  1  0
 15 50  1  0
 16 51  1  0
 16 52  1  0
 16 53  1  0
 17 54  1  0
 17 55  1  0
 20 56  1  0
 20 57  1  0
 22 58  1  0
 22 59  1  0
 23 60  1  0
 23 61  1  0
 25 62  1  0
 25 63  1  0
 26 64  1  0
 26 65  1  0
 28 66  1  0
 34 67  1  0
 36 68  1  0
 36 69  1  0
 36 70  1  0
M  END
> <Name>
ZINC30591738

> <reference>
BDB50021143

> <quality>
0.806

> <status>
decoy

$$$$
ZINC09275626
  SciTegic06061311253D

 69 71  0  0  1  0            999 V2000
    3.3286   -2.9706   -5.5731 C   0  0
    2.8500   -1.8806   -6.4971 C   0  0
    1.6789   -1.1023   -6.3443 C   0  0
    1.6351   -0.2214   -7.4138 C   0  0
    2.7093   -0.4422   -8.1875 N   0  0
    3.4624   -1.4595   -7.6405 C   0  0
    4.7129   -1.9929   -8.1908 C   0  0
    5.2928   -2.8955   -7.6184 O   0  0
    5.2196   -1.4823   -9.3316 O   0  0
    6.4604   -2.0588   -9.8178 C   0  0
    0.5642    0.8088   -7.6647 C   0  0
    0.6980   -1.2039   -5.2549 C   0  0
    0.6024   -0.1944   -4.3138 C   0  0
   -0.3435   -0.1378   -3.1367 C   0  0  1  0  0  0
   -0.0670    1.1202   -2.4368 N   0  0
    0.9137    1.7723   -3.0838 C   0  0
    1.3679    2.8491   -2.7552 O   0  0
    1.3629    0.9805   -4.2605 C   0  0
    2.2384    1.3008   -5.0447 O   0  0
   -0.7527    1.5927   -1.2315 C   0  0
   -0.0127    1.0858    0.0080 C   0  0
   -0.7288    1.5792    1.2668 C   0  0
   -0.5304    1.7347    3.6749 C   0  0
   -0.1017   -0.3705    2.5582 C   0  0
   -1.7708   -0.1565   -3.6201 C   0  0
   -2.4366    1.0312   -3.8536 C   0  0
   -3.7498    1.0140   -4.2989 C   0  0
   -4.3949   -0.1959   -4.5099 C   0  0
   -3.7293   -1.3832   -4.2760 C   0  0
   -2.4139   -1.3660   -3.8361 C   0  0
   -1.7566   -2.5351   -3.6115 O   0  0
   -2.4802   -3.7431   -3.8547 C   0  0
   -4.4051    2.1831   -4.5292 O   0  0
   -5.7557    2.0905   -4.9867 C   0  0
   -0.1100   -2.2823   -5.1725 O   0  5
    0.0093    1.0997    2.4542 N   0  3
    4.3512   -2.6440   -5.3330 H   0  0
    3.4410   -3.8258   -6.2557 H   0  0
    2.7042   -3.1780   -4.6915 H   0  0
    2.9355    0.0678   -9.0533 H   0  0
    6.2712   -3.1342   -9.9507 H   0  0
    7.1947   -1.9424   -9.0071 H   0  0
    6.8086   -1.5904  -10.7502 H   0  0
    0.5569    1.3805   -6.7250 H   0  0
   -0.3555    0.2054   -7.6554 H   0  0
    0.6833    1.4293   -8.5651 H   0  0
   -0.2018   -1.0022   -2.4713 H   0  0
   -0.7671    2.6926   -1.2250 H   0  0
   -1.7848    1.2124   -1.2225 H   0  0
    0.0018   -0.0141    0.0023 H   0  0
    1.0194    1.4662    0.0013 H   0  0
   -1.7549    1.1833    1.2871 H   0  0
   -0.7544    2.6789    1.2689 H   0  0
   -1.5953    1.4788    3.7774 H   0  0
   -0.4245    2.8266    3.5939 H   0  0
    0.0216    1.3751    4.5558 H   0  0
    0.3205   -0.8319    1.6533 H   0  0
   -1.1619   -0.6496    2.6484 H   0  0
    0.4488   -0.7229    3.4429 H   0  0
   -1.9251    1.9906   -3.6863 H   0  0
   -5.4364   -0.2096   -4.8635 H   0  0
   -4.2423   -2.3426   -4.4386 H   0  0
   -2.8069   -3.7020   -4.9043 H   0  0
   -3.3776   -3.6992   -3.2200 H   0  0
   -1.8837   -4.6446   -3.6511 H   0  0
   -6.2999    1.5084   -4.2284 H   0  0
   -5.7286    1.4969   -5.9124 H   0  0
   -6.2180    3.0752   -5.1503 H   0  0
    1.0025    1.3541    2.3560 H   0  0
  1  2  1  0
  2  6  2  0
  2  3  1  0
  3  4  2  0
  3 12  1  0
  4  5  1  0
  4 11  1  0
  5  6  1  0
  6  7  1  0
  7  8  2  0
  7  9  1  0
  9 10  1  0
 12 13  2  0
 12 35  1  0
 13 18  1  0
 13 14  1  0
 14 15  1  0
 14 25  1  0
 15 16  1  0
 15 20  1  0
 16 17  2  0
 16 18  1  0
 18 19  2  0
 20 21  1  0
 21 22  1  0
 22 36  1  0
 23 36  1  0
 24 36  1  0
 25 30  2  0
 25 26  1  0
 26 27  2  0
 27 28  1  0
 27 33  1  0
 28 29  2  0
 29 30  1  0
 30 31  1  0
 31 32  1  0
 33 34  1  0
  1 37  1  0
  1 38  1  0
  1 39  1  0
  5 40  1  0
 10 41  1  0
 10 42  1  0
 10 43  1  0
 11 44  1  0
 11 45  1  0
 11 46  1  0
 14 47  1  0
 20 48  1  0
 20 49  1  0
 21 50  1  0
 21 51  1  0
 22 52  1  0
 22 53  1  0
 23 54  1  0
 23 55  1  0
 23 56  1  0
 24 57  1  0
 24 58  1  0
 24 59  1  0
 26 60  1  0
 28 61  1  0
 29 62  1  0
 32 63  1  0
 32 64  1  0
 32 65  1  0
 34 66  1  0
 34 67  1  0
 34 68  1  0
 36 69  1  0
M  CHG  2  35  -1  36   1
M  END
> <Name>
ZINC09275626

> <reference>
BDB50021143

> <quality>
0.806

> <status>
decoy

$$$$
ZINC19612014
  SciTegic06061311253D

 58 61  0  0  1  0            999 V2000
   -2.3890   -0.3898    2.0771 C   0  0
   -1.8344    0.0271    0.7135 C   0  0
   -0.6178    0.7542    0.8961 O   0  0
    0.0042    1.1971   -0.2165 C   0  0
   -0.4748    0.9712   -1.3120 O   0  0
    1.2099    1.9289   -0.1090 C   0  0
    2.3909    1.3039    0.0870 C   0  0
    3.5543    2.0115    0.1897 N   0  0
    3.6212    3.3463    0.1082 C   0  0
    4.7043    3.8882    0.2125 O   0  0
    2.5268    4.1087   -0.0854 N   0  0
    1.2211    3.4403   -0.2161 C   0  0  2  0  0  0
    0.3145    3.9887    0.8556 C   0  0
   -0.9505    4.4093    0.6763 C   0  0
   -1.4218    4.8394    1.9380 C   0  0
   -0.4165    4.6560    2.8127 C   0  0
    0.6307    4.1351    2.1526 O   0  0
    2.4255   -0.1990    0.1935 C   0  0
    3.1619   -0.7471   -0.9315 O   0  0
    3.2856   -2.0826   -0.9863 C   0  0
    2.7949   -2.7707   -0.1229 O   0  0
    4.0366   -2.7236   -2.1248 C   0  0
    4.0297   -4.1431   -1.9606 O   0  0
    4.7129   -4.8445   -2.9835 N   0  0
    4.7785   -6.1363   -2.9494 C   0  0
    4.1277   -6.8944   -1.8212 C   0  0
    5.4903   -6.8672   -4.0152 C   0  0
    5.5621   -8.2616   -3.9803 C   0  0
    6.2273   -8.9426   -4.9773 C   0  0
    6.8272   -8.2474   -6.0179 C   0  0
    6.7590   -6.8549   -6.0587 C   0  0
    6.0891   -6.1668   -5.0648 C   0  0
    7.4204   -6.4187   -7.1707 O   0  0
    7.5405   -7.5726   -8.0233 C   0  0
    7.5310   -8.6804   -7.1038 O   0  0
   -2.5858    0.5065    2.6836 H   0  0
   -1.6557   -1.0271    2.5930 H   0  0
   -3.3255   -0.9496    1.9372 H   0  0
   -1.6375   -0.8698    0.1078 H   0  0
   -2.5676    0.6644    0.1975 H   0  0
    4.4295    1.4891    0.3382 H   0  0
    2.6019    5.1345   -0.1406 H   0  0
    0.8931    3.6526   -1.2444 H   0  0
   -1.5108    4.4171   -0.2703 H   0  0
   -2.4192    5.2460    2.1614 H   0  0
   -0.4469    4.8925    3.8865 H   0  0
    2.9211   -0.4889    1.1317 H   0  0
    1.3982   -0.5921    0.1848 H   0  0
    3.5516   -2.4628   -3.0771 H   0  0
    5.0751   -2.3610   -2.1308 H   0  0
    3.0714   -6.5878   -1.8376 H   0  0
    4.5748   -6.4868   -0.9025 H   0  0
    4.2486   -7.9851   -1.8977 H   0  0
    5.0879   -8.8164   -3.1573 H   0  0
    6.2828  -10.0408   -4.9480 H   0  0
    6.0276   -5.0691   -5.1003 H   0  0
    8.4931   -7.5434   -8.5725 H   0  0
    6.6773   -7.6353   -8.7023 H   0  0
  1  2  1  0
  2  3  1  0
  3  4  1  0
  4  5  2  0
  4  6  1  0
  6 12  1  0
  6  7  2  0
  7  8  1  0
  7 18  1  0
  8  9  1  0
  9 10  2  0
  9 11  1  0
 11 12  1  0
 12 13  1  0
 13 17  1  0
 13 14  2  0
 14 15  1  0
 15 16  2  0
 16 17  1  0
 18 19  1  0
 19 20  1  0
 20 21  2  0
 20 22  1  0
 22 23  1  0
 23 24  1  0
 24 25  2  0
 25 26  1  0
 25 27  1  0
 27 32  2  0
 27 28  1  0
 28 29  2  0
 29 30  1  0
 30 35  1  0
 30 31  2  0
 31 32  1  0
 31 33  1  0
 33 34  1  0
 34 35  1  0
  1 36  1  0
  1 37  1  0
  1 38  1  0
  2 39  1  0
  2 40  1  0
  8 41  1  0
 11 42  1  0
 12 43  1  0
 14 44  1  0
 15 45  1  0
 16 46  1  0
 18 47  1  0
 18 48  1  0
 22 49  1  0
 22 50  1  0
 26 51  1  0
 26 52  1  0
 26 53  1  0
 28 54  1  0
 29 55  1  0
 32 56  1  0
 34 57  1  0
 34 58  1  0
M  END
> <Name>
ZINC19612014

> <reference>
BDB50021143

> <quality>
0.806

> <status>
decoy

$$$$
ZINC24971134
  SciTegic06061311253D

 29 31  0  0  0  0            999 V2000
   -1.4004   -4.7298   -2.4460 C   0  0
   -1.4207   -4.0114   -3.6003 C   0  0
   -1.4390   -2.6128   -3.5719 C   0  0
   -1.4369   -1.9310   -2.3754 C   0  0
   -1.4213   -2.6458   -1.1676 C   0  0
   -1.3978   -4.0643   -1.2076 C   0  0
   -1.3766   -4.7846   -0.0006 C   0  0
   -1.3747   -4.0629    1.1812 C   0  0
   -1.3938   -2.6461    1.1485 C   0  0
   -1.4134   -1.9985    0.0048 N   0  0
   -1.4333   -0.5336    0.0129 C   0  0
    0.0021   -0.0041    0.0020 C   0  0
   -0.0173    1.4248    0.0099 O   0  0
   -1.3907   -1.9620    2.3539 N   0  0
   -1.3702   -2.6249    3.5214 C   0  0
   -1.3683   -1.9815    4.5528 O   0  0
   -1.3516   -3.9641    3.6035 N   0  5
   -1.3526   -4.7333    2.4931 C   0  0
   -1.3353   -5.9464    2.5740 O   0  5
   -1.4585   -1.9190   -4.7388 O   0  0
   -1.3860   -5.8291   -2.4811 H   0  0
   -1.4228   -4.5358   -4.5673 H   0  0
   -1.4474   -0.8311   -2.3663 H   0  0
   -1.3620   -5.8845    0.0049 H   0  0
   -1.9648   -0.1690   -0.8785 H   0  0
   -1.9477   -0.1777    0.9177 H   0  0
    0.5341   -0.3680    0.8934 H   0  0
    0.5178   -0.3581   -0.9028 H   0  0
   -0.4803    1.7450    0.8243 H   0  0
  1  6  1  0
  1  2  2  0
  2  3  1  0
  3  4  1  0
  3 20  2  0
  4  5  2  0
  5 10  1  0
  5  6  1  0
  6  7  2  0
  7  8  1  0
  8 18  2  0
  8  9  1  0
  9 10  1  0
  9 14  2  0
 10 11  1  0
 11 12  1  0
 12 13  1  0
 14 15  1  0
 15 16  2  0
 15 17  1  0
 17 18  1  0
 18 19  1  0
  1 21  1  0
  2 22  1  0
  4 23  1  0
  7 24  1  0
 11 25  1  0
 11 26  1  0
 12 27  1  0
 12 28  1  0
 13 29  1  0
M  CHG  2  17  -1  19  -1
M  END
> <Name>
ZINC24971134

> <reference>
BDB50021114

> <quality>
0.801

> <status>
decoy

$$$$
ZINC20024024
  SciTegic06061311253D

 35 36  0  0  0  0            999 V2000
    4.4573   -3.2560    8.4528 C   0  0
    4.0619   -2.6268    7.3740 C   0  0
    4.8250   -1.4247    6.8805 C   0  0
    5.2172   -1.6345    5.4846 N   0  0
    4.3861   -1.2360    4.4996 C   0  0
    3.3207   -0.7077    4.7566 O   0  0
    4.8034   -1.4583    3.1037 C   0  0
    4.0042   -1.0763    2.0422 C   0  0
    2.8948   -0.3433    2.2634 N   0  0
    2.0448   -0.0623    1.2316 N   0  0
    0.7013   -0.5979    1.4950 C   0  0
   -0.2006   -0.3136    0.2910 C   0  0
   -0.2190    1.0938    0.0373 O   0  0
    1.0730    1.6486   -0.2238 C   0  0
    1.9878    1.3841    0.9750 C   0  0
    6.1072   -2.1111    2.8889 C   0  0
    6.5172   -2.3330    1.7651 O   0  5
    6.8362   -2.4507    3.9719 N   0  0
    6.3936   -2.2177    5.2155 C   0  0
    7.0966   -2.5528    6.1487 O   0  0
    5.3463   -2.9069    8.9985 H   0  0
    3.9003   -4.1335    8.8130 H   0  0
    3.1729   -2.9759    6.8284 H   0  0
    4.1875   -0.5311    6.9513 H   0  0
    5.7254   -1.2825    7.4962 H   0  0
    4.2737   -1.3705    1.0171 H   0  0
    2.6880    0.0049    3.2104 H   0  0
    0.7641   -1.6840    1.6576 H   0  0
    0.2811   -0.1151    2.3896 H   0  0
   -1.2220   -0.6607    0.5059 H   0  0
    0.1892   -0.8405   -0.5924 H   0  0
    0.9828    2.7332   -0.3835 H   0  0
    1.5002    1.1783   -1.1217 H   0  0
    2.9981    1.7592    0.7547 H   0  0
    1.5887    1.8990    1.8613 H   0  0
  1  2  2  0
  2  3  1  0
  3  4  1  0
  4 19  1  0
  4  5  1  0
  5  6  2  0
  5  7  1  0
  7  8  2  0
  7 16  1  0
  8  9  1  0
  9 10  1  0
 10 15  1  0
 10 11  1  0
 11 12  1  0
 12 13  1  0
 13 14  1  0
 14 15  1  0
 16 17  1  0
 16 18  2  0
 18 19  1  0
 19 20  2  0
  1 21  1  0
  1 22  1  0
  2 23  1  0
  3 24  1  0
  3 25  1  0
  8 26  1  0
  9 27  1  0
 11 28  1  0
 11 29  1  0
 12 30  1  0
 12 31  1  0
 14 32  1  0
 14 33  1  0
 15 34  1  0
 15 35  1  0
M  CHG  1  17  -1
M  END
> <Name>
ZINC20024024

> <reference>
BDB50021114

> <quality>
0.801

> <status>
decoy

$$$$
ZINC18119512
  SciTegic06061311253D

 24 26  0  0  1  0            999 V2000
    3.1277    5.0965    1.6067 C   0  0
    2.7310    5.1090    2.9102 N   0  0
    2.0120    3.9616    3.1330 C   0  0
    1.9994    3.2680    1.9055 C   0  0
    2.6987    4.0176    1.0189 N   0  0
    1.3269    2.0468    1.8447 C   0  0
    0.7292    1.5983    2.9357 N   0  0
    0.7678    2.2767    4.0681 C   0  0
    1.3890    3.4328    4.1769 N   0  0
    1.2776    1.2588    0.5611 C   0  0  1  0  0  0
    0.3662    0.0305    0.5208 C   0  0  2  0  0  0
   -0.0239    1.2979   -0.2423 C   0  0  1  0  0  0
   -1.1587    2.1213    0.3102 C   0  0
   -1.0198    2.7207    1.3500 O   0  0
   -0.4134   -0.2986    1.7678 C   0  0
   -1.5093    0.1805    1.9392 O   0  0
   -2.3239    2.1887   -0.3528 O   0  5
    0.1096   -1.1241    2.6880 O   0  5
    3.7237    5.8837    1.1219 H   0  0
    2.9337    5.8449    3.6017 H   0  0
    0.2628    1.8610    4.9525 H   0  0
    2.3373    1.4495    0.3360 H   0  0
    0.4986   -1.0286    0.2547 H   0  0
   -0.2883    1.5285   -1.2849 H   0  0
  1  5  2  0
  1  2  1  0
  2  3  1  0
  3  9  2  0
  3  4  1  0
  4  5  1  0
  4  6  2  0
  6  7  1  0
  6 10  1  0
  7  8  2  0
  8  9  1  0
 10 12  1  0
 10 11  1  0
 11 12  1  0
 11 15  1  0
 12 13  1  0
 13 14  2  0
 13 17  1  0
 15 16  2  0
 15 18  1  0
  1 19  1  0
  2 20  1  0
  8 21  1  0
 10 22  1  0
 11 23  1  0
 12 24  1  0
M  CHG  2  17  -1  18  -1
M  END
> <Name>
ZINC18119512

> <reference>
BDB50021114

> <quality>
0.782

> <status>
decoy

$$$$
ZINC13524659
  SciTegic06061311253D

 17 16  0  0  0  0            999 V2000
    2.3329    1.3277    0.0504 C   0  0
    1.0652    1.8289    0.0005 C   0  0
   -0.0829    0.9208    0.0332 C   0  0
   -1.3425    1.4216    0.0747 C   0  0
   -2.4923    0.5125    0.2315 C   0  0
   -2.3114   -0.6855    0.3235 O   0  0
   -3.7444    1.0102    0.2728 O   0  5
   -1.5443    2.7584   -0.0280 O   0  0
    0.8499    3.2936   -0.0869 C   0  0
    0.6276    3.9355    0.9192 O   0  0
    0.9009    3.9115   -1.2822 O   0  5
    3.4833    2.2267   -0.0934 C   0  0
    3.3116    3.4285   -0.1549 O   0  0
    4.7316    1.7197   -0.1574 O   0  5
    2.4926    0.2495    0.1985 H   0  0
    0.0763   -0.1676    0.0241 H   0  0
   -1.1138    3.0176   -0.8810 H   0  0
  1  2  2  0
  1 12  1  0
  2  3  1  0
  2  9  1  0
  3  4  2  0
  4  5  1  0
  4  8  1  0
  5  6  2  0
  5  7  1  0
  9 10  2  0
  9 11  1  0
 12 13  2  0
 12 14  1  0
  1 15  1  0
  3 16  1  0
  8 17  1  0
M  CHG  3   7  -1  11  -1  14  -1
M  END
> <Name>
ZINC13524659

> <reference>
BDB50021114

> <quality>
0.781

> <status>
decoy

$$$$
ZINC06829167
  SciTegic06061311253D

 27 29  0  0  1  0            999 V2000
   -2.1226   -3.4227    0.7091 C   0  0
   -0.9877   -2.6345    0.7850 C   0  0
    0.0865   -2.9346   -0.0617 C   0  0
   -0.0303   -4.0109   -0.9431 C   0  0
   -1.1315   -4.7317   -0.9773 N   0  0
   -2.1594   -4.4717   -0.1917 C   0  0
    1.3227   -2.1262   -0.0225 C   0  0
    1.2575   -0.9137   -0.0687 O   0  0
    2.5227   -2.7337    0.0645 N   0  0
    2.7845   -4.1542    0.0700 C   0  0  1  0  0  0
    4.0502   -4.2042    0.9742 C   0  0  1  0  0  0
    4.6438   -5.5533    0.7699 C   0  0
    5.8344   -5.7273    0.6213 O   0  0
    3.7435   -6.5804    0.7623 N   0  0
    2.4188   -6.3547    0.8716 C   0  0
    1.6939   -7.2577    1.2409 O   0  0
    1.8655   -5.1333    0.5858 N   0  5
    4.7309   -3.0084    0.5205 N   0  5
    3.7452   -2.1360    0.1600 C   0  0
    3.9347   -0.9541   -0.0508 O   0  0
   -2.9864   -3.2171    1.3584 H   0  0
   -0.9309   -1.7939    1.4922 H   0  0
    0.8048   -4.2588   -1.6147 H   0  0
   -3.0604   -5.0996   -0.2542 H   0  0
    2.7922   -4.4598   -0.9867 H   0  0
    3.9912   -4.1519    2.0714 H   0  0
    4.0839   -7.5482    0.6711 H   0  0
  1  6  2  0
  1  2  1  0
  2  3  2  0
  3  4  1  0
  3  7  1  0
  4  5  2  0
  5  6  1  0
  7  8  2  0
  7  9  1  0
  9 19  1  0
  9 10  1  0
 10 17  1  0
 10 11  1  0
 11 12  1  0
 11 18  1  0
 12 13  2  0
 12 14  1  0
 14 15  1  0
 15 16  2  0
 15 17  1  0
 18 19  1  0
 19 20  2  0
  1 21  1  0
  2 22  1  0
  4 23  1  0
  6 24  1  0
 10 25  1  0
 11 26  1  0
 14 27  1  0
M  CHG  2  17  -1  18  -1
M  END
> <Name>
ZINC06829167

> <reference>
BDB50021114

> <quality>
0.779

> <status>
decoy

$$$$
ZINC20213563
  SciTegic06061311253D

 24 25  0  0  0  0            999 V2000
    3.4780    3.0441   -0.0148 C   0  0
    3.4615    1.6913    0.2865 C   0  0
    2.3080    1.0438    0.2849 N   0  0
    1.1780    1.6741   -0.0002 C   0  0
    1.1599    2.9651   -0.2976 N   0  0
    2.2778    3.6722   -0.3084 C   0  0
   -0.0111    0.9658    0.0074 N   0  5
   -1.4563    1.7742    0.0186 S   0  0
   -2.4755    0.7845   -0.0090 O   0  0
   -1.3685    2.7488    1.0490 O   0  0
   -1.5709    2.6577   -1.5016 C   0  0
   -2.1266    2.1794   -2.6919 C   0  0
   -2.0111    3.1896   -3.6248 C   0  0
   -1.3970    4.2555   -3.0061 N   0  0
   -1.1414    3.9234   -1.7232 C   0  0
   -2.4593    3.1374   -5.0185 C   0  0
   -2.9910    2.1319   -5.4490 O   0  0
   -2.2821    4.2046   -5.8243 O   0  5
    4.4230    3.6070   -0.0208 H   0  0
    4.3963    1.1625    0.5241 H   0  0
    2.2552    4.7457   -0.5475 H   0  0
   -2.5714    1.1865   -2.8540 H   0  0
   -1.1702    5.1572   -3.4492 H   0  0
   -0.6619    4.5750   -0.9779 H   0  0
  1  6  2  0
  1  2  1  0
  2  3  2  0
  3  4  1  0
  4  5  2  0
  4  7  1  0
  5  6  1  0
  7  8  1  0
  8  9  2  0
  8 10  2  0
  8 11  1  0
 11 15  2  0
 11 12  1  0
 12 13  2  0
 13 14  1  0
 13 16  1  0
 14 15  1  0
 16 17  2  0
 16 18  1  0
  1 19  1  0
  2 20  1  0
  6 21  1  0
 12 22  1  0
 14 23  1  0
 15 24  1  0
M  CHG  2   7  -1  18  -1
M  END
> <Name>
ZINC20213563

> <reference>
BDB50021114

> <quality>
0.779

> <status>
decoy

$$$$
ZINC12475445
  SciTegic06061311253D

 33 34  0  0  0  0            999 V2000
    0.5973    7.2458   -1.0825 C   0  0
   -0.6346    7.9532   -0.9272 O   0  0
   -1.7413    7.2125   -0.6482 C   0  0
   -1.6423    5.8571   -0.5236 C   0  0
   -2.7879    5.0934   -0.2406 C   0  0
   -2.6847    3.6403   -0.1125 C   0  0
   -3.7679    2.9176    0.0578 N   0  0
   -3.6866    1.6305    0.0867 N   0  0
   -2.5106    1.0460    0.0619 C   0  0
   -1.6062    1.1644    1.2154 C   0  0
   -0.3656    0.4991    1.2280 C   0  0
    0.4485    0.6346    2.3075 C   0  0
    0.0779    1.3893    3.3577 N   0  0
   -1.1028    2.0337    3.3802 C   0  0
   -1.9648    1.9407    2.3338 C   0  0
    0.9511    1.5078    4.4661 O   0  0
   -2.1305    0.3336   -1.0270 O   0  5
   -4.0298    5.7262   -0.0755 C   0  0
   -4.1272    7.0809   -0.1948 C   0  0
   -2.9879    7.8439   -0.4825 C   0  0
   -3.0850    9.1708   -0.5991 O   0  0
    0.4340    6.5133   -1.8867 H   0  0
    0.7547    6.6897   -0.1466 H   0  0
    1.4446    7.9107   -1.3060 H   0  0
   -0.6671    5.3628   -0.6445 H   0  0
   -1.6998    3.1526   -0.1588 H   0  0
   -0.0589   -0.1230    0.3742 H   0  0
    1.4214    0.1215    2.3228 H   0  0
   -1.3735    2.6427    4.2554 H   0  0
   -2.9311    2.4656    2.3603 H   0  0
    1.8010    1.8547    4.0954 H   0  0
   -4.9253    5.1286    0.1503 H   0  0
   -5.1012    7.5753   -0.0650 H   0  0
  1  2  1  0
  2  3  1  0
  3 20  1  0
  3  4  2  0
  4  5  1  0
  5  6  2  0
  5 18  1  0
  6  7  1  0
  7  8  2  0
  8  9  1  0
  9 10  2  0
  9 17  1  0
 10 15  1  0
 10 11  1  0
 11 12  2  0
 12 13  1  0
 13 14  1  0
 13 16  1  0
 14 15  2  0
 18 19  2  0
 19 20  1  0
 20 21  2  0
  1 22  1  0
  1 23  1  0
  1 24  1  0
  4 25  1  0
  6 26  1  0
 11 27  1  0
 12 28  1  0
 14 29  1  0
 15 30  1  0
 16 31  1  0
 18 32  1  0
 19 33  1  0
M  CHG  1  17  -1
M  END
> <Name>
ZINC12475445

> <reference>
BDB50021114

> <quality>
0.775

> <status>
decoy

$$$$
ZINC05382445
  SciTegic06061311253D

 33 34  0  0  0  0            999 V2000
   -1.2836    2.8687    1.3341 C   0  0
   -1.3217    1.9633    0.0188 C   0  0
   -0.0143    1.2034    0.0087 C   0  0
    0.0021   -0.0041    0.0071 O   0  5
    1.2746    2.0003    0.0006 C   0  0
    0.9262    3.4297    0.3629 C   0  0
    1.3679    4.3568   -0.2724 O   0  0
    0.0091    3.6624    1.5426 C   0  0
    2.4298    1.1021   -0.3597 C   0  0
    2.2528    0.1516   -1.0833 O   0  0
    3.8059    1.3901    0.1828 C   0  0
    4.7880    0.3358   -0.3317 C   0  0  2  0  0  0
    4.4162   -1.0364    0.2405 C   0  0
    5.4567   -2.0433   -0.1749 C   0  0
    5.1376   -3.2054   -0.3063 O   0  0
    6.7272   -1.6800   -0.4055 N   0  0
    7.1482   -0.4116   -0.2902 C   0  0
    8.3082   -0.1469   -0.5225 O   0  0
    6.2080    0.6899    0.1227 C   0  0
   -2.1271    3.5739    1.3002 H   0  0
   -1.4435    2.2233    2.2104 H   0  0
   -2.1652    1.2594    0.0730 H   0  0
   -1.3923    2.6015   -0.8744 H   0  0
   -0.2257    4.7343    1.6194 H   0  0
    0.5045    3.3248    2.4649 H   0  0
    3.7812    1.3616    1.2822 H   0  0
    4.1306    2.3867   -0.1509 H   0  0
    4.7420    0.3087   -1.4304 H   0  0
    4.3788   -0.9790    1.3384 H   0  0
    3.4335   -1.3433   -0.1470 H   0  0
    7.4062   -2.4035   -0.6820 H   0  0
    6.5198    1.6340   -0.3478 H   0  0
    6.2284    0.7984    1.2171 H   0  0
  1  8  1  0
  1  2  1  0
  2  3  1  0
  3  5  2  0
  3  4  1  0
  5  9  1  0
  5  6  1  0
  6  8  1  0
  6  7  2  0
  9 10  2  0
  9 11  1  0
 11 12  1  0
 12 19  1  0
 12 13  1  0
 13 14  1  0
 14 15  2  0
 14 16  1  0
 16 17  1  0
 17 18  2  0
 17 19  1  0
  1 20  1  0
  1 21  1  0
  2 22  1  0
  2 23  1  0
  8 24  1  0
  8 25  1  0
 11 26  1  0
 11 27  1  0
 12 28  1  0
 13 29  1  0
 13 30  1  0
 16 31  1  0
 19 32  1  0
 19 33  1  0
M  CHG  1   4  -1
M  END
> <Name>
ZINC05382445

> <reference>
BDB50021114

> <quality>
0.769

> <status>
decoy

$$$$
ZINC05568272
  SciTegic06061311253D

 24 25  0  0  0  0            999 V2000
   -4.2116   -4.8793    0.2829 C   0  0
   -2.9165   -5.3647    0.2753 C   0  0
   -1.8505   -4.4913    0.1748 C   0  0
   -2.0812   -3.1226    0.0941 C   0  0
   -3.3828   -2.6396    0.1025 C   0  0
   -4.4440   -3.5192    0.1966 C   0  0
   -6.0960   -2.9066    0.2073 S   0  0
   -6.8905   -3.8923    0.8526 O   0  0
   -6.0281   -1.5632    0.6654 O   0  0
   -1.0046   -2.2348   -0.0010 N   0  0
   -1.0767   -1.0231    0.5847 C   0  0
   -2.1065   -0.6696    1.1255 O   0  0
    0.0957   -0.1245    0.5695 C   0  0
    0.1677    1.1113    1.1134 N   0  5
    1.3491    1.5769    0.8942 N   0  0
    2.0415    0.6869    0.2288 C   0  0
    1.2713   -0.3768    0.0209 N   0  0
   -0.2254   -5.1014    0.1575 Cl  0  0
   -6.5642   -2.8495   -1.2398 O   0  5
   -5.0587   -5.5770    0.3578 H   0  0
   -2.7349   -6.4471    0.3493 H   0  0
   -3.5690   -1.5576    0.0343 H   0  0
   -0.1567   -2.5070   -0.5186 H   0  0
    3.0844    0.8001   -0.1023 H   0  0
  1  6  2  0
  1  2  1  0
  2  3  2  0
  3  4  1  0
  3 18  1  0
  4  5  2  0
  4 10  1  0
  5  6  1  0
  6  7  1  0
  7  8  2  0
  7  9  2  0
  7 19  1  0
 10 11  1  0
 11 12  2  0
 11 13  1  0
 13 17  2  0
 13 14  1  0
 14 15  1  0
 15 16  2  0
 16 17  1  0
  1 20  1  0
  2 21  1  0
  5 22  1  0
 10 23  1  0
 16 24  1  0
M  CHG  2  14  -1  19  -1
M  END
> <Name>
ZINC05568272

> <reference>
BDB50021114

> <quality>
0.755

> <status>
decoy

$$$$
ZINC17142129
  SciTegic06061311253D

 32 33  0  0  1  0            999 V2000
    3.4490    1.4722   -0.5879 C   0  0
    2.5243    2.0076    0.5072 C   0  0  2  0  0  0
    1.1314    2.1146    0.0026 C   0  0  2  0  0  0
    0.5609    3.2611    0.9287 C   0  0  1  0  0  0
    1.6727    4.2625    0.7269 C   0  0  2  0  0  0
    2.9029    3.4122    0.8710 N   0  0
    1.6317    5.3298    1.7901 C   0  0
    2.3805    5.2689    2.7363 O   0  0
    0.7633    6.3480    1.6857 O   0  0
    0.7794    7.3394    2.7464 C   0  0
   -0.7978    3.3240    0.3458 C   0  0
   -1.4851    4.3099    0.1871 O   0  5
   -1.1134    2.0301    0.0176 N   0  0
   -0.0144    1.2081    0.0087 C   0  0
    0.0021   -0.0041    0.0020 O   0  0
    2.5764    1.1177    1.7223 C   0  0
    1.7277    0.2741    1.8901 O   0  0
    3.5655    1.2621    2.6181 O   0  0
    3.5524    0.3705    3.7640 C   0  0
    4.4867    1.4897   -0.2234 H   0  0
    3.3661    2.1161   -1.4759 H   0  0
    3.1643    0.4421   -0.8484 H   0  0
    1.3708    2.0766   -1.0704 H   0  0
    0.3862    3.2803    2.0146 H   0  0
    1.6160    4.7972   -0.2327 H   0  0
    3.6366    3.7522    0.2331 H   0  0
    1.8047    7.7359    2.7846 H   0  0
    0.5925    6.7941    3.6833 H   0  0
    0.0412    8.1397    2.5893 H   0  0
    3.5709   -0.6528    3.3608 H   0  0
    2.5832    0.5203    4.2623 H   0  0
    4.3929    0.5507    4.4504 H   0  0
  1  2  1  0
  2  6  1  0
  2  3  1  0
  2 16  1  0
  3 14  1  0
  3  4  1  0
  4  5  1  0
  4 11  1  0
  5  6  1  0
  5  7  1  0
  7  8  2  0
  7  9  1  0
  9 10  1  0
 11 12  1  0
 11 13  2  0
 13 14  1  0
 14 15  2  0
 16 17  2  0
 16 18  1  0
 18 19  1  0
  1 20  1  0
  1 21  1  0
  1 22  1  0
  3 23  1  0
  4 24  1  0
  5 25  1  0
  6 26  1  0
 10 27  1  0
 10 28  1  0
 10 29  1  0
 19 30  1  0
 19 31  1  0
 19 32  1  0
M  CHG  1  12  -1
M  END
> <Name>
ZINC17142129

> <reference>
BDB50021114

> <quality>
0.754

> <status>
decoy

$$$$
ZINC16382835
  SciTegic06061311253D

 17 18  0  0  0  0            999 V2000
   -1.2050    7.2941   -0.1522 C   0  0
   -2.3003    8.0828   -0.2516 N   0  5
   -1.8044    9.3964   -0.3218 N   0  0
   -0.5190    9.3129   -0.2711 N   0  0
   -0.1555    8.0852   -0.1716 N   0  0
   -1.1921    5.9113   -0.0544 N   0  0
   -0.0696    5.2811    0.0293 N   0  0
   -0.0518    3.9628    0.0243 C   0  0
    1.1949    3.2069    0.2620 C   0  0
    2.2452    3.7836    0.4709 O   0  5
    1.1360    1.8594    0.2415 N   0  0
   -0.0146    1.2111    0.0131 C   0  0
    0.0020   -0.0041    0.0077 O   0  0
   -1.1813    1.8298   -0.2151 N   0  5
   -1.2777    3.1754   -0.2197 C   0  0
   -2.3433    3.7250   -0.4236 O   0  0
   -2.0787    5.3871   -0.0486 H   0  0
  1  5  2  0
  1  2  1  0
  1  6  1  0
  2  3  1  0
  3  4  2  0
  4  5  1  0
  6  7  1  0
  7  8  2  0
  8 15  1  0
  8  9  1  0
  9 10  1  0
  9 11  2  0
 11 12  1  0
 12 13  2  0
 12 14  1  0
 14 15  1  0
 15 16  2  0
  6 17  1  0
M  CHG  3   2  -1  10  -1  14  -1
M  END
> <Name>
ZINC16382835

> <reference>
BDB50021114

> <quality>
0.753

> <status>
decoy

$$$$
ZINC00527457
  SciTegic06061311253D

 38 39  0  0  0  0            999 V2000
    4.8459    0.9799    1.2102 C   0  0
    4.7654    0.1063   -0.0433 C   0  0  2  0  0  0
    5.9425   -0.8710   -0.0604 C   0  0
    4.8216    0.9941   -1.2881 C   0  0
    3.5075   -0.6445   -0.0353 N   0  0
    2.3024    0.0283   -0.0198 C   0  0
    2.2830    1.3585   -0.0124 N   0  0
    1.1243    2.0055    0.0021 C   0  0
   -0.0160    1.3259    0.0093 N   0  0
    0.0021   -0.0041    0.0020 C   0  0
    1.1617   -0.6523   -0.0125 N   0  0
   -1.1836   -0.7105    0.0100 N   0  0
   -1.2585   -1.6272   -1.1370 C   0  0
   -2.5587   -2.4314   -1.0566 C   0  0
   -3.6685   -1.5306   -1.0101 O   0  0
   -3.6280   -0.6237    0.0951 C   0  0
   -2.3386    0.1989    0.0264 C   0  0
    1.1034    3.4931    0.0103 C   0  0
    0.0442    4.0849    0.0236 O   0  0
    2.2594    4.1825    0.0029 O   0  5
    5.7901    1.5443    1.2050 H   0  0
    4.8054    0.3425    2.1058 H   0  0
    3.9999    1.6828    1.2231 H   0  0
    5.9029   -1.5100    0.8341 H   0  0
    6.8876   -0.3082   -0.0667 H   0  0
    5.8852   -1.4994   -0.9614 H   0  0
    5.7660    1.5581   -1.2952 H   0  0
    3.9755    1.6970   -1.2770 H   0  0
    4.7638    0.3666   -2.1897 H   0  0
    3.5224   -1.6744   -0.0412 H   0  0
   -0.4003   -2.3150   -1.1155 H   0  0
   -1.2430   -1.0479   -2.0720 H   0  0
   -2.6469   -3.0766   -1.9432 H   0  0
   -2.5522   -3.0521   -0.1485 H   0  0
   -4.4959    0.0506    0.0491 H   0  0
   -3.6513   -1.1903    1.0377 H   0  0
   -2.2760    0.8565    0.9060 H   0  0
   -2.3409    0.8080   -0.8896 H   0  0
  1  2  1  0
  2  3  1  0
  2  4  1  0
  2  5  1  0
  5  6  1  0
  6 11  2  0
  6  7  1  0
  7  8  2  0
  8  9  1  0
  8 18  1  0
  9 10  2  0
 10 11  1  0
 10 12  1  0
 12 17  1  0
 12 13  1  0
 13 14  1  0
 14 15  1  0
 15 16  1  0
 16 17  1  0
 18 19  2  0
 18 20  1  0
  1 21  1  0
  1 22  1  0
  1 23  1  0
  3 24  1  0
  3 25  1  0
  3 26  1  0
  4 27  1  0
  4 28  1  0
  4 29  1  0
  5 30  1  0
 13 31  1  0
 13 32  1  0
 14 33  1  0
 14 34  1  0
 16 35  1  0
 16 36  1  0
 17 37  1  0
 17 38  1  0
M  CHG  1  20  -1
M  END
> <Name>
ZINC00527457

> <reference>
BDB50021114

> <quality>
0.749

> <status>
decoy

$$$$
ZINC19470407
  SciTegic06061311253D

 30 31  0  0  1  0            999 V2000
   -0.2453    3.6859   -0.7109 C   0  0
   -1.2658    3.2237    0.0575 C   0  0
   -1.0698    2.1090    0.8435 N   0  0
    0.1153    1.4771    0.8712 C   0  0
    0.2481    0.4994    1.5817 O   0  5
    1.1568    1.8937    0.1301 N   0  0
    1.0382    2.9753   -0.6678 C   0  0
    1.9788    3.3547   -1.3401 O   0  0
   -2.5809    3.9096    0.0463 C   0  0
   -2.6349    5.1208    0.1225 O   0  0
   -3.7159    3.1890   -0.0485 N   0  0
   -3.6713    1.7205   -0.0640 C   0  0
   -4.4235    1.2128   -1.2929 C   0  0
   -5.8371    1.7992   -1.3012 C   0  0
   -5.7576    3.3256   -1.3778 C   0  0  2  0  0  0
   -5.0210    3.8571   -0.1443 C   0  0
   -7.1501    3.9003   -1.4186 C   0  0
   -8.1083    3.1647   -1.3923 O   0  0
   -7.3260    5.2294   -1.4841 O   0  5
   -0.3777    4.5714   -1.3500 H   0  0
    2.0509    1.3840    0.1717 H   0  0
   -2.6248    1.3845   -0.1093 H   0  0
   -4.1476    1.3272    0.8462 H   0  0
   -4.4827    0.1149   -1.2605 H   0  0
   -3.8918    1.5254   -2.2037 H   0  0
   -6.3874    1.4172   -2.1737 H   0  0
   -6.3621    1.5061   -0.3801 H   0  0
   -5.2139    3.6211   -2.2872 H   0  0
   -4.8741    4.9427   -0.2434 H   0  0
   -5.6123    3.6422    0.7580 H   0  0
  1  7  1  0
  1  2  2  0
  2  3  1  0
  2  9  1  0
  3  4  2  0
  4  5  1  0
  4  6  1  0
  6  7  1  0
  7  8  2  0
  9 10  2  0
  9 11  1  0
 11 16  1  0
 11 12  1  0
 12 13  1  0
 13 14  1  0
 14 15  1  0
 15 16  1  0
 15 17  1  0
 17 18  2  0
 17 19  1  0
  1 20  1  0
  6 21  1  0
 12 22  1  0
 12 23  1  0
 13 24  1  0
 13 25  1  0
 14 26  1  0
 14 27  1  0
 15 28  1  0
 16 29  1  0
 16 30  1  0
M  CHG  2   5  -1  19  -1
M  END
> <Name>
ZINC19470407

> <reference>
BDB50021114

> <quality>
0.748

> <status>
decoy

$$$$
ZINC06090963
  SciTegic06061311253D

 30 31  0  0  1  0            999 V2000
    1.1949   -0.6663   -0.1312 C   0  0
    1.2121   -2.0168   -0.1385 C   0  0
   -0.0103   -2.7223   -0.0075 C   0  0
   -0.0205   -3.9401   -0.0117 O   0  0
   -1.1618   -2.0328    0.1213 N   0  0
   -1.1511   -0.6869    0.1199 C   0  0
   -2.1984   -0.0793    0.2321 O   0  0
    0.0021   -0.0041    0.0020 N   0  0
   -0.0178    1.4608    0.0101 C   0  0  1  0  0  0
   -0.7832    1.9812   -1.2220 C   0  0
   -1.9332    2.8280   -0.6245 C   0  0  1  0  0  0
   -1.3986    3.1458    0.7952 C   0  0  2  0  0  0
   -0.7096    1.9338    1.1779 O   0  0
   -2.5551    3.4383    1.7534 C   0  0
   -2.0330    3.8409    3.0212 O   0  0
   -3.0267    4.1365    3.9857 N   0  0
   -4.2055    4.0365    3.6960 O   0  0
   -2.7026    4.4909    5.1051 O   0  0
   -2.1279    4.0270   -1.3771 O   0  0
    2.3784   -2.6861   -0.2685 F   0  0
    2.1331   -0.1008   -0.2316 H   0  0
   -2.0536   -2.5383    0.2212 H   0  0
    1.0219    1.8199    0.0021 H   0  0
   -1.1943    1.1386   -1.7974 H   0  0
   -0.1266    2.6153   -1.8358 H   0  0
   -2.9082    2.3186   -0.6279 H   0  0
   -0.7488    4.0330    0.8212 H   0  0
   -3.1780    4.2456    1.3408 H   0  0
   -3.1658    2.5322    1.8802 H   0  0
   -2.3455    3.7862   -2.3124 H   0  0
  1  8  1  0
  1  2  2  0
  2  3  1  0
  2 20  1  0
  3  4  2  0
  3  5  1  0
  5  6  1  0
  6  7  2  0
  6  8  1  0
  8  9  1  0
  9 13  1  0
  9 10  1  0
 10 11  1  0
 11 12  1  0
 11 19  1  0
 12 13  1  0
 12 14  1  0
 14 15  1  0
 15 16  1  0
 16 17  2  0
 16 18  2  0
  1 21  1  0
  5 22  1  0
  9 23  1  0
 10 24  1  0
 10 25  1  0
 11 26  1  0
 12 27  1  0
 14 28  1  0
 14 29  1  0
 19 30  1  0
M  END
> <Name>
ZINC06090963

> <reference>
BDB50021114

> <quality>
0.747

> <status>
decoy

$$$$
ZINC08726336
  SciTegic06061311253D

 35 37  0  0  1  0            999 V2000
   -6.7338    6.6330   -1.0137 C   0  0
   -5.2794    6.7132   -0.5455 C   0  0  2  0  0  0
   -4.4931    5.5155   -1.0403 C   0  0
   -4.2908    5.1976   -2.1926 O   0  0
   -4.0663    4.8770    0.0671 N   0  0
   -4.4737    5.4957    1.1813 C   0  0
   -4.2165    5.1056    2.3033 O   0  0
   -5.1966    6.6000    0.9209 N   0  5
   -3.2611    3.6533    0.0529 C   0  0
   -1.7981    4.0146    0.0408 C   0  0
   -1.4614    5.1793    0.0439 O   0  0
   -0.8641    3.0431    0.0267 N   0  0
    0.5904    3.2596    0.0139 C   0  0
    1.1757    1.8341    0.0007 C   0  0
   -0.0111    0.9658    0.0074 N   0  0
   -1.1132    1.7270    0.0161 C   0  0
   -2.2375    1.2653    0.0184 O   0  0
   -4.6332    8.0156   -1.0222 C   0  0  2  0  0  0
   -3.9801    8.9083    0.0349 C   0  0
   -5.3024    9.3283   -0.6101 C   0  0
   -7.3045    7.4509   -0.5498 H   0  0
   -7.1594    5.6699   -0.6954 H   0  0
   -6.7825    6.7186   -2.1093 H   0  0
   -3.5004    3.0660   -0.8459 H   0  0
   -3.4836    3.0574    0.9503 H   0  0
    0.9058    3.7887    0.9253 H   0  0
    0.8873    3.7982   -0.8981 H   0  0
    1.7771    1.6627    0.9056 H   0  0
    1.7593    1.6733   -0.9177 H   0  0
    0.0029   -0.0641    0.0057 H   0  0
   -4.3087    7.5731   -1.9756 H   0  0
   -3.1323    9.4725   -0.3810 H   0  0
   -4.1349    8.5114    1.0491 H   0  0
   -6.1530    9.1532    0.0650 H   0  0
   -5.1504   10.1129   -1.3660 H   0  0
  1  2  1  0
  2  8  1  0
  2  3  1  0
  2 18  1  0
  3  4  2  0
  3  5  1  0
  5  6  1  0
  5  9  1  0
  6  7  2  0
  6  8  1  0
  9 10  1  0
 10 11  2  0
 10 12  1  0
 12 16  1  0
 12 13  1  0
 13 14  1  0
 14 15  1  0
 15 16  1  0
 16 17  2  0
 18 20  1  0
 18 19  1  0
 19 20  1  0
  1 21  1  0
  1 22  1  0
  1 23  1  0
  9 24  1  0
  9 25  1  0
 13 26  1  0
 13 27  1  0
 14 28  1  0
 14 29  1  0
 15 30  1  0
 18 31  1  0
 19 32  1  0
 19 33  1  0
 20 34  1  0
 20 35  1  0
M  CHG  1   8  -1
M  END
> <Name>
ZINC08726336

> <reference>
BDB50021114

> <quality>
0.727

> <status>
decoy

$$$$
ZINC05124296
  SciTegic06061311253D

 29 30  0  0  0  0            999 V2000
   -1.8798    8.0501    1.4257 C   0  0
   -0.6253    7.2511    1.1831 C   0  0
   -0.6830    5.7920    1.0623 C   0  0
   -1.7514    5.2079    1.1581 O   0  0
    0.4450    5.1047    0.8465 N   0  0
    1.6009    5.7296    0.7427 C   0  0
    1.6829    7.0801    0.8558 N   0  5
    0.5316    7.8475    1.0767 N   0  0
    2.7429    5.0015    0.5218 N   0  0
    2.6735    3.6068    0.4088 N   0  0
    3.7546    2.9175    0.1997 C   0  0
    3.6817    1.4526    0.0809 C   0  0
    2.4433    0.8081    0.0772 C   0  0
    2.3812   -0.5649   -0.0349 C   0  0
    3.5418   -1.3149   -0.1443 C   0  0
    4.7755   -0.6987   -0.1481 C   0  0
    4.8625    0.6893   -0.0304 C   0  0
    6.1783    1.3530   -0.0287 C   0  0
    6.2469    2.5662   -0.0369 O   0  0
    7.3056    0.6144   -0.0182 O   0  5
   -1.9219    8.7729    0.5975 H   0  0
   -1.6817    8.6190    2.3461 H   0  0
   -2.7901    7.4366    1.4967 H   0  0
    3.6511    5.4804    0.4391 H   0  0
    4.7245    3.4289    0.1115 H   0  0
    1.5172    1.3954    0.1637 H   0  0
    1.4034   -1.0687   -0.0375 H   0  0
    3.4782   -2.4098   -0.2287 H   0  0
    5.6909   -1.3011   -0.2439 H   0  0
  1  2  1  0
  2  8  2  0
  2  3  1  0
  3  4  2  0
  3  5  1  0
  5  6  2  0
  6  7  1  0
  6  9  1  0
  7  8  1  0
  9 10  1  0
 10 11  2  0
 11 12  1  0
 12 17  2  0
 12 13  1  0
 13 14  2  0
 14 15  1  0
 15 16  2  0
 16 17  1  0
 17 18  1  0
 18 19  2  0
 18 20  1  0
  1 21  1  0
  1 22  1  0
  1 23  1  0
  9 24  1  0
 11 25  1  0
 13 26  1  0
 14 27  1  0
 15 28  1  0
 16 29  1  0
M  CHG  2   7  -1  20  -1
M  END
> <Name>
ZINC05124296

> <reference>
BDB50021114

> <quality>
0.724

> <status>
decoy

$$$$
ZINC05764310
  SciTegic06061311253D

 25 25  0  0  1  0            999 V2000
   -1.3905   -0.5361    0.3465 C   0  0
    0.0021   -0.0041    0.0020 C   0  0  1  0  0  0
   -0.0187    1.5262    0.0104 C   0  0  2  0  0  0
    1.3545    2.0341    0.0001 N   0  0
    2.3321    1.3942    0.6621 C   0  0
    3.4371    1.8971    0.7193 O   0  0
    2.1181    0.2115    1.2622 N   0  0
    0.9955   -0.4918    1.0265 C   0  0
    0.7825   -1.5170    1.6377 O   0  0
   -0.6986    1.9942    1.2049 O   0  0
   -1.0789    3.2814    1.2249 C   0  0
   -0.8512    3.9934    0.2756 O   0  0
   -1.7899    3.8385    2.4312 C   0  0
   -2.1665    5.5800    2.1558 Cl  0  0
    0.3934   -0.4810   -1.3268 N   0  0
    0.9892   -1.5369   -1.4438 O   0  0
    0.1229    0.1784   -2.3145 O   0  0
   -1.6854   -0.1753    1.3429 H   0  0
   -1.3741   -1.6360    0.3457 H   0  0
   -2.1152   -0.1805   -0.4007 H   0  0
   -0.5504    1.8901   -0.8811 H   0  0
    1.5738    2.8943   -0.5222 H   0  0
    3.2956    2.7917    1.1189 H   0  0
   -1.1449    3.7393    3.3167 H   0  0
   -2.7252    3.2831    2.5947 H   0  0
  1  2  1  0
  2  8  1  0
  2  3  1  0
  2 15  1  0
  3  4  1  0
  3 10  1  0
  4  5  1  0
  5  6  1  0
  5  7  2  0
  7  8  1  0
  8  9  2  0
 10 11  1  0
 11 12  2  0
 11 13  1  0
 13 14  1  0
 15 16  2  0
 15 17  2  0
  1 18  1  0
  1 19  1  0
  1 20  1  0
  3 21  1  0
  4 22  1  0
  6 23  1  0
 13 24  1  0
 13 25  1  0
M  END
> <Name>
ZINC05764310

> <reference>
BDB50021114

> <quality>
0.724

> <status>
decoy

$$$$
ZINC06524539
  SciTegic06061311253D

 27 29  0  0  1  0            999 V2000
    0.0021   -0.0041    0.0020 C   0  0
   -0.0167    1.3782    0.0096 C   0  0
   -0.9809    2.3579    0.0187 N   0  0
   -0.2899    3.5812    0.0234 N   0  5
    0.9784    3.3600    0.0104 N   0  0
    1.2305    2.0689    0.0014 C   0  0
    2.4449    1.2415   -0.0146 C   0  0
    3.5542    1.7520   -0.0225 O   0  0
    2.2973   -0.0925   -0.0204 N   0  0
    1.1479   -0.6577   -0.0124 N   0  0
   -2.4332    2.1657    0.0235 C   0  0  1  0  0  0
   -2.9486    1.9966    1.4749 C   0  0
   -4.4245    2.4576    1.3181 C   0  0
   -4.3128    3.5586    0.2416 C   0  0  1  0  0  0
   -3.0932    3.3394   -0.4768 O   0  0
   -5.5025    3.4704   -0.7164 C   0  0
   -5.4488    4.5563   -1.6437 O   0  0
   -0.9453   -0.5631    0.0080 H   0  0
   -2.6435    1.2801   -0.5941 H   0  0
   -2.9065    0.9399    1.7776 H   0  0
   -2.4072    2.6683    2.1573 H   0  0
   -4.7951    2.8833    2.2623 H   0  0
   -5.0471    1.6278    0.9523 H   0  0
   -4.3145    4.5557    0.7062 H   0  0
   -6.4403    3.5240   -0.1440 H   0  0
   -5.4617    2.5179   -1.2652 H   0  0
   -4.6057    4.5089   -2.1604 H   0  0
  1 10  1  0
  1  2  2  0
  2  6  1  0
  2  3  1  0
  3  4  1  0
  3 11  1  0
  4  5  1  0
  5  6  2  0
  6  7  1  0
  7  8  2  0
  7  9  1  0
  9 10  2  0
 11 15  1  0
 11 12  1  0
 12 13  1  0
 13 14  1  0
 14 15  1  0
 14 16  1  0
 16 17  1  0
  1 18  1  0
 11 19  1  0
 12 20  1  0
 12 21  1  0
 13 22  1  0
 13 23  1  0
 14 24  1  0
 16 25  1  0
 16 26  1  0
 17 27  1  0
M  CHG  1   4  -1
M  END
> <Name>
ZINC06524539

> <reference>
BDB50021114

> <quality>
0.724

> <status>
decoy

$$$$
ZINC20395394
  SciTegic06061311253D

 23 24  0  0  0  0            999 V2000
   -2.8105   -4.0196   -1.0928 C   0  0
   -3.8718   -4.8193   -0.6425 C   0  0
   -3.8251   -4.8015    0.7230 C   0  0
   -2.7811   -4.0316    1.0946 O   0  0
   -2.1702   -3.5542    0.0028 C   0  0
   -0.9633   -2.6517   -0.0034 C   0  0
   -1.5032   -0.9199    0.0109 S   0  0
    0.0021   -0.0041    0.0020 C   0  0
   -0.0179    1.4682    0.0101 C   0  0
   -1.0750    2.0706    0.0184 O   0  0
    1.1521    2.1400    0.0026 N   0  0
    2.3170    1.4658   -0.0122 C   0  0
    3.3649    2.0834   -0.0193 O   0  0
    2.3424    0.1216   -0.0197 N   0  5
    1.1559   -0.6213   -0.0123 N   0  0
   -4.7440   -5.4997    1.6249 C   0  0
   -5.6500   -6.1713    1.1696 O   0  0
   -4.5854   -5.3978    2.9607 O   0  5
   -2.5487   -3.8107   -2.1406 H   0  0
   -4.6003   -5.3565   -1.2676 H   0  0
   -0.3511   -2.8516    0.8884 H   0  0
   -0.3667   -2.8415   -0.9079 H   0  0
   -1.5515    1.7214    0.8128 H   0  0
  1  5  2  0
  1  2  1  0
  2  3  2  0
  3  4  1  0
  3 16  1  0
  4  5  1  0
  5  6  1  0
  6  7  1  0
  7  8  1  0
  8 15  2  0
  8  9  1  0
  9 10  1  0
  9 11  2  0
 11 12  1  0
 12 13  2  0
 12 14  1  0
 14 15  1  0
 16 17  2  0
 16 18  1  0
  1 19  1  0
  2 20  1  0
  6 21  1  0
  6 22  1  0
 10 23  1  0
M  CHG  2  14  -1  18  -1
M  END
> <Name>
ZINC20395394

> <reference>
BDB50021114

> <quality>
0.724

> <status>
decoy

$$$$
ZINC04974923
  SciTegic06061311253D

 33 34  0  0  1  0            999 V2000
   -0.8434    5.8173   -5.1552 C   0  0
    1.2194    4.9652   -6.1286 C   0  0
    2.5718    4.4553   -5.5861 C   0  0
    2.3917    4.3929   -4.0553 C   0  0
    0.9456    4.8703   -3.8017 C   0  0  1  0  0  0
    0.8788    5.7006   -2.5458 C   0  0
    0.7657    6.9061   -2.6210 O   0  0
    0.9505    5.0514   -1.2333 C   0  0
    0.8898    5.8098   -0.0959 C   0  0
    0.9659    5.1176    1.2055 C   0  0
    0.9169    5.7382    2.2550 O   0  0
    1.0921    3.7079    1.1928 C   0  0
    1.1470    3.0623    0.0076 C   0  0
    1.0760    3.7131   -1.1552 O   0  0
    1.2864    1.5618   -0.0018 C   0  0
   -0.0110    0.9628    0.0073 O   0  0
    0.7641    7.1567   -0.1625 O   0  0
    0.6365    5.6727   -4.9829 N   0  0
   -1.2955    4.8179   -5.2377 H   0  0
   -1.0448    6.3831   -6.0768 H   0  0
   -1.2714    6.3484   -4.2922 H   0  0
    1.3846    5.6623   -6.9633 H   0  0
    0.5816    4.1167   -6.4171 H   0  0
    3.3730    5.1643   -5.8418 H   0  0
    2.7817    3.4505   -5.9814 H   0  0
    2.5132    3.3578   -3.7034 H   0  0
    3.1035    5.0719   -3.5631 H   0  0
    0.2343    4.0440   -3.6561 H   0  0
    1.1448    3.1451    2.1364 H   0  0
    1.8449    1.2387    0.8891 H   0  0
    1.8276    1.2494   -0.9071 H   0  0
   -0.5146    1.2518   -0.7946 H   0  0
   -0.0528    7.3038   -0.7020 H   0  0
  1 18  1  0
  2  3  1  0
  2 18  1  0
  3  4  1  0
  4  5  1  0
  5  6  1  0
  5 18  1  0
  6  7  2  0
  6  8  1  0
  8 14  1  0
  8  9  2  0
  9 10  1  0
  9 17  1  0
 10 11  2  0
 10 12  1  0
 12 13  2  0
 13 14  1  0
 13 15  1  0
 15 16  1  0
  1 19  1  0
  1 20  1  0
  1 21  1  0
  2 22  1  0
  2 23  1  0
  3 24  1  0
  3 25  1  0
  4 26  1  0
  4 27  1  0
  5 28  1  0
 12 29  1  0
 15 30  1  0
 15 31  1  0
 16 32  1  0
 17 33  1  0
M  END
> <Name>
ZINC04974923

> <reference>
BDB50021114

> <quality>
0.718

> <status>
decoy

$$$$
ZINC01414326
  SciTegic06061311253D

 22 22  0  0  0  0            999 V2000
   -7.1002    3.6477    0.0895 C   0  0
   -5.6536    3.7721    0.0763 O   0  0
   -5.1473    5.0196    0.0782 C   0  0
   -5.8938    5.9783    0.0905 O   0  0
   -3.8124    5.2052    0.0665 N   0  0
   -2.9516    4.0999    0.0523 N   0  0
   -1.6167    4.2854    0.0405 C   0  0
   -1.1594    5.4124    0.0422 O   0  0
   -0.7116    3.1231    0.0256 C   0  0
    0.6520    3.1631    0.0128 C   0  0
    1.0826    1.8796    0.0018 N   0  5
   -0.0126    1.0758    0.0080 C   0  0
   -1.0825    1.8172    0.0165 N   0  0
    1.4987    4.3773    0.0113 N   0  0
    2.7122    4.2735   -0.0013 O   0  0
    0.9818    5.4801    0.0226 O   0  0
   -7.4661    4.1922   -0.7934 H   0  0
   -7.4491    4.1826    0.9851 H   0  0
   -7.4354    2.6000    0.0870 H   0  0
   -3.4251    6.1596    0.0680 H   0  0
   -3.3389    3.1455    0.0509 H   0  0
    0.0023   -0.0241    0.0061 H   0  0
  1  2  1  0
  2  3  1  0
  3  4  2  0
  3  5  1  0
  5  6  1  0
  6  7  1  0
  7  8  2  0
  7  9  1  0
  9 13  1  0
  9 10  2  0
 10 11  1  0
 10 14  1  0
 11 12  1  0
 12 13  2  0
 14 15  2  0
 14 16  2  0
  1 17  1  0
  1 18  1  0
  1 19  1  0
  5 20  1  0
  6 21  1  0
 12 22  1  0
M  CHG  1  11  -1
M  END
> <Name>
ZINC01414326

> <reference>
BDB50021114

> <quality>
0.715

> <status>
decoy

$$$$
ZINC26269926
  SciTegic06061311253D

 28 29  0  0  0  0            999 V2000
    1.6464    8.1550    0.4438 C   0  0
    2.6427    7.1717    0.0114 N   0  0
    3.8637    7.5842   -0.3819 C   0  0
    4.1356    8.7658   -0.3831 O   0  0
    4.8904    6.5712   -0.8209 C   0  0
    4.7034    5.2834   -0.0101 C   0  0
    3.2470    4.9024   -0.0039 C   0  0
    2.3208    5.8107    0.0098 N   0  0
    2.8701    3.4852   -0.0075 C   0  0
    3.7320    2.6266   -0.0204 O   0  0
    1.5690    3.1338    0.0035 N   0  0
    1.2137    1.7976    0.0001 C   0  0
    2.0841    0.7539   -0.0138 N   0  5
    1.3345   -0.4042   -0.0129 C   0  0
    0.0021   -0.0041    0.0020 C   0  0
   -0.0162    1.3404    0.0094 N   0  0
   -1.1411   -0.8665    0.0083 C   0  0
   -2.0479   -1.5507    0.0133 N   0  0
    1.8285   -1.7482   -0.0252 C   0  0
    2.2204   -2.8144   -0.0350 N   0  0
    1.3597    7.8443    1.4593 H   0  0
    0.7753    7.9844   -0.2059 H   0  0
    2.0000    9.1960    0.4073 H   0  0
    5.9004    6.9707   -0.6470 H   0  0
    4.7581    6.3536   -1.8910 H   0  0
    5.2918    4.4738   -0.4665 H   0  0
    5.0434    5.4466    1.0232 H   0  0
    0.8393    3.8607    0.0144 H   0  0
  1  2  1  0
  2  8  1  0
  2  3  1  0
  3  4  2  0
  3  5  1  0
  5  6  1  0
  6  7  1  0
  7  8  2  0
  7  9  1  0
  9 10  2  0
  9 11  1  0
 11 12  1  0
 12 16  2  0
 12 13  1  0
 13 14  1  0
 14 15  2  0
 14 19  1  0
 15 16  1  0
 15 17  1  0
 17 18  3  0
 19 20  3  0
  1 21  1  0
  1 22  1  0
  1 23  1  0
  5 24  1  0
  5 25  1  0
  6 26  1  0
  6 27  1  0
 11 28  1  0
M  CHG  1  13  -1
M  END
> <Name>
ZINC26269926

> <reference>
BDB50021114

> <quality>
0.713

> <status>
decoy

$$$$
ZINC27395813
  SciTegic06061311253D

 32 33  0  0  1  0            999 V2000
   -1.3315    3.3199    0.0265 C   0  0
   -1.3062    1.9364    0.0188 C   0  0
   -2.4979    1.2342    0.0206 C   0  0
   -3.6592    1.8597    0.0304 N   0  0
   -3.7398    3.1793    0.0275 C   0  0
   -2.5751    3.9618    0.0250 C   0  0
   -2.6600    5.4347    0.0209 C   0  0
   -3.7462    5.9811    0.0252 O   0  0
   -1.5335    6.1745    0.0126 N   0  0
   -1.6177    7.6371    0.0085 C   0  0
   -0.2070    8.2292   -0.0010 C   0  0  1  0  0  0
   -0.2846    9.7682   -0.0054 C   0  0
    0.4854   10.1905    1.2695 C   0  0
    1.3573    8.9404    1.5514 C   0  0
    0.4945    7.8401    1.1918 O   0  0
   -4.9539    3.7795    0.0322 O   0  0
   -0.0144    1.2138    0.0087 N   0  0
    0.0021   -0.0041    0.0020 O   0  0
    1.0320    1.8371    0.0021 O   0  0
   -0.3974    3.9007    0.0336 H   0  0
   -2.4768    0.1344    0.0137 H   0  0
   -4.5269    1.3049    0.0406 H   0  0
   -0.6134    5.7116    0.0091 H   0  0
   -2.1608    7.9707   -0.8880 H   0  0
   -2.1513    7.9773    0.9083 H   0  0
    0.3142    7.8622   -0.8975 H   0  0
   -1.3326   10.0957    0.0605 H   0  0
    0.2151   10.1701   -0.8991 H   0  0
    1.1234   11.0618    1.0602 H   0  0
   -0.2142   10.3633    2.1006 H   0  0
    1.6145    8.8904    2.6197 H   0  0
    2.2511    8.9501    0.9103 H   0  0
  1  2  1  0
  1  6  2  0
  2  3  2  0
  2 17  1  0
  3  4  1  0
  4  5  1  0
  5 16  2  0
  5  6  1  0
  6  7  1  0
  7  8  2  0
  7  9  1  0
  9 10  1  0
 10 11  1  0
 11 15  1  0
 11 12  1  0
 12 13  1  0
 13 14  1  0
 14 15  1  0
 17 18  2  0
 17 19  2  0
  1 20  1  0
  3 21  1  0
  4 22  1  0
  9 23  1  0
 10 24  1  0
 10 25  1  0
 11 26  1  0
 12 27  1  0
 12 28  1  0
 13 29  1  0
 13 30  1  0
 14 31  1  0
 14 32  1  0
M  END
> <Name>
ZINC27395813

> <reference>
BDB50021114

> <quality>
0.711

> <status>
decoy

$$$$
ZINC05839539
  SciTegic06061311253D

 20 20  0  0  1  0            999 V2000
    3.5019    1.7407   -0.8138 C   0  0
    3.4463    3.1799   -0.3717 C   0  0
    2.3299    3.7081    0.0007 N   0  0
    1.1443    2.9684    0.0071 N   0  0
    1.1645    1.6661   -0.0001 C   0  0
    2.4784    0.9277   -0.0104 C   0  0  1  0  0  0
    2.2975   -0.3847   -0.6357 N   0  0
    1.9497   -1.4924    0.1485 N   0  0
    1.7977   -1.3642    1.3501 O   0  0
    1.7992   -2.5835   -0.3714 O   0  0
   -0.0111    0.9658    0.0074 N   0  0
   -1.2338    1.6498    0.0169 N   0  0
   -2.2802    1.0265    0.0184 O   0  0
   -1.2503    2.8676    0.0236 O   0  0
    4.5109    1.3407   -0.6352 H   0  0
    3.2636    1.6769   -1.8858 H   0  0
    4.3649    3.7850   -0.3664 H   0  0
    2.8369    0.7923    1.0207 H   0  0
    2.4260   -0.4931   -1.6519 H   0  0
    0.0029   -0.0641    0.0061 H   0  0
  1  6  1  0
  1  2  1  0
  2  3  2  0
  3  4  1  0
  4  5  2  0
  5  6  1  0
  5 11  1  0
  6  7  1  0
  7  8  1  0
  8  9  2  0
  8 10  2  0
 11 12  1  0
 12 13  2  0
 12 14  2  0
  1 15  1  0
  1 16  1  0
  2 17  1  0
  6 18  1  0
  7 19  1  0
 11 20  1  0
M  END
> <Name>
ZINC05839539

> <reference>
BDB50021114

> <quality>
0.711

> <status>
decoy

$$$$
ZINC00006025
  SciTegic06061311253D

 39 40  0  0  0  0            999 V2000
   -3.8762    0.6936   -2.4917 C   0  0
   -2.6896   -0.0243   -2.0196 N   0  0
   -2.8404   -1.2423   -1.2196 C   0  0
   -1.1778    0.5410   -2.3902 S   0  0
   -1.3152    1.3274   -3.5658 O   0  0
   -0.2985   -0.5728   -2.3172 O   0  0
   -0.7315    1.5767   -1.1776 N   0  0
   -0.0127    1.0858    0.0080 C   0  0
   -0.7378    1.5839    1.2628 C   0  0
   -0.8947    3.0430    1.1864 N   0  0
   -1.7317    3.4341    0.0443 C   0  0
   -1.0428    3.0119   -1.2578 C   0  0
   -1.4034    3.5496    2.3712 C   0  0
   -0.7601    3.2972    3.5850 C   0  0
   -1.3066    3.8242    4.7383 C   0  0
   -2.4151    4.5470    4.6571 N   0  0
   -2.9983    4.7674    3.4964 C   0  0
   -2.5088    4.2886    2.3705 N   0  0
   -4.2572    5.5948    3.4545 C   0  0
   -3.9166    6.9718    3.2820 O   0  0
   -4.4514    0.9169   -1.5811 H   0  0
   -4.4508   -0.0537   -3.0586 H   0  0
   -3.6555    1.5943   -3.0833 H   0  0
   -3.4569   -1.9112   -1.8380 H   0  0
   -3.4576   -0.9406   -0.3605 H   0  0
   -1.8901   -1.7052   -0.9151 H   0  0
   -0.0001   -0.0141    0.0026 H   0  0
    1.0177    1.4707    0.0016 H   0  0
   -0.1492    1.3249    2.1553 H   0  0
   -1.7291    1.1114    1.3259 H   0  0
   -1.8721    4.5251    0.0473 H   0  0
   -2.7102    2.9372    0.1190 H   0  0
   -1.7161    3.1979   -2.1075 H   0  0
   -0.1126    3.5851   -1.3849 H   0  0
    0.1589    2.6937    3.6212 H   0  0
   -0.8281    3.6465    5.7127 H   0  0
   -4.8108    5.4700    4.3968 H   0  0
   -4.8852    5.2648    2.6138 H   0  0
   -3.4191    7.0859    2.4337 H   0  0
  1  2  1  0
  2  3  1  0
  2  4  1  0
  4  5  2  0
  4  6  2  0
  4  7  1  0
  7 12  1  0
  7  8  1  0
  8  9  1  0
  9 10  1  0
 10 11  1  0
 10 13  1  0
 11 12  1  0
 13 18  2  0
 13 14  1  0
 14 15  2  0
 15 16  1  0
 16 17  2  0
 17 18  1  0
 17 19  1  0
 19 20  1  0
  1 21  1  0
  1 22  1  0
  1 23  1  0
  3 24  1  0
  3 25  1  0
  3 26  1  0
  8 27  1  0
  8 28  1  0
  9 29  1  0
  9 30  1  0
 11 31  1  0
 11 32  1  0
 12 33  1  0
 12 34  1  0
 14 35  1  0
 15 36  1  0
 19 37  1  0
 19 38  1  0
 20 39  1  0
M  END
> <Name>
ZINC00006025

> <reference>
BDB50021114

> <quality>
0.709

> <status>
decoy

$$$$
ZINC16958839
  SciTegic06061311253D

 18 19  0  0  0  0            999 V2000
    1.2350    3.0943    0.0069 C   0  0
    1.1765    1.5884   -0.0006 C   0  0
    2.1986    0.9442   -0.0139 O   0  0
   -0.0110    0.9628    0.0073 O   0  5
    2.6340    3.5287   -0.0041 N   0  0
    3.4007    3.7762   -1.1305 C   0  0
    4.6451    4.1590   -0.7153 C   0  0
    5.6365    4.4760   -1.7562 C   0  0
    6.7600    4.8218   -1.4504 O   0  5
    5.2826    4.3773   -3.0521 N   0  0
    4.1626    4.0327   -3.4258 N   0  0
    3.1622    3.7147   -2.5818 C   0  0
    2.0768    3.3809   -3.0129 O   0  0
    4.6528    4.1499    0.6694 N   0  0
    3.4108    3.7670    1.0965 N   0  0
    0.7231    3.4857   -0.8846 H   0  0
    0.7401    3.4771    0.9116 H   0  0
    1.4396    4.0107   -2.5917 H   0  0
  1  2  1  0
  1  5  1  0
  2  3  2  0
  2  4  1  0
  5 15  1  0
  5  6  1  0
  6 12  2  0
  6  7  1  0
  7  8  2  0
  7 14  1  0
  8  9  1  0
  8 10  1  0
 10 11  2  0
 11 12  1  0
 12 13  1  0
 14 15  2  0
  1 16  1  0
  1 17  1  0
 13 18  1  0
M  CHG  2   4  -1   9  -1
M  END
> <Name>
ZINC16958839

> <reference>
BDB50021114

> <quality>
0.707

> <status>
decoy

$$$$
ZINC26259361
  SciTegic06061311253D

 27 28  0  0  0  0            999 V2000
    3.3534    7.7805    0.0116 C   0  0
    3.4553    6.3552    0.0031 O   0  0
    2.2914    5.6533    0.0104 C   0  0
    2.3182    4.2687    0.0086 C   0  0
    1.1211    3.5523    0.0104 C   0  0
   -0.0960    4.2364    0.0257 C   0  0
   -0.1109    5.6159    0.0332 C   0  0
    1.0765    6.3247    0.0257 C   0  0
   -1.4020    6.3397    0.0490 N   0  0
   -2.4490    5.7173    0.0552 O   0  0
   -1.4174    7.5575    0.0556 O   0  0
    1.1411    2.0744    0.0023 C   0  0
    2.2020    1.4810   -0.0110 O   0  0
   -0.0168    1.3847    0.0097 N   0  5
    0.0021   -0.0041    0.0020 C   0  0
    1.1102   -0.8000   -0.0183 N   0  0
    0.6447   -2.0839   -0.0150 C   0  0
   -0.6575   -2.0244    0.0062 N   0  0
   -1.0420   -0.7979    0.0129 N   0  0
    2.7722    8.0437    0.9077 H   0  0
    2.7554    8.0531   -0.8705 H   0  0
    4.3348    8.2773    0.0049 H   0  0
    3.2803    3.7355    0.0058 H   0  0
   -1.0424    3.6758    0.0318 H   0  0
    1.0582    7.4245    0.0319 H   0  0
    2.0941   -0.4955   -0.0331 H   0  0
    1.2553   -2.9987   -0.0278 H   0  0
  1  2  1  0
  2  3  1  0
  3  8  2  0
  3  4  1  0
  4  5  2  0
  5  6  1  0
  5 12  1  0
  6  7  2  0
  7  8  1  0
  7  9  1  0
  9 10  2  0
  9 11  2  0
 12 13  2  0
 12 14  1  0
 14 15  1  0
 15 16  1  0
 15 19  2  0
 16 17  1  0
 17 18  2  0
 18 19  1  0
  1 20  1  0
  1 21  1  0
  1 22  1  0
  4 23  1  0
  6 24  1  0
  8 25  1  0
 16 26  1  0
 17 27  1  0
M  CHG  1  14  -1
M  END
> <Name>
ZINC26259361

> <reference>
BDB50021114

> <quality>
0.704

> <status>
decoy

$$$$
ZINC17109594
  SciTegic06061311253D

 30 32  0  0  1  0            999 V2000
    4.5883    4.1322   -4.4145 C   0  0
    3.7586    4.6341   -3.4775 C   0  0
    2.7271    3.9186   -3.0151 O   0  0
    2.4677    2.6791   -3.4539 C   0  0
    3.2513    2.0962   -4.3875 C   0  0
    4.3553    2.8251   -4.9101 C   0  0
    5.0853    2.3360   -5.7588 O   0  0
    2.9858    0.8350   -4.8243 O   0  5
    1.2902    1.9233   -2.8941 C   0  0  2  0  0  0
    0.4905    2.8318   -1.9445 C   0  0  1  0  0  0
   -0.6431    2.0073   -1.2951 C   0  0
   -0.0179    1.4678    0.0101 C   0  0  2  0  0  0
    1.4217    2.0283   -0.0006 C   0  0  2  0  0  0
    1.3586    3.1950   -0.8491 O   0  0
    2.3360    0.9857   -0.6667 C   0  0
    1.7764    0.7334   -2.0894 C   0  0
    1.7006   -0.3905   -2.5244 O   0  0
    0.0021   -0.0041    0.0020 C   0  0
    0.0175   -1.1399   -0.0042 N   0  0
    0.4498    1.4768   -3.9601 O   0  0
    5.4335    4.7285   -4.7887 H   0  0
    3.9326    5.6477   -3.0872 H   0  0
    0.1060    3.6985   -2.5022 H   0  0
   -0.9283    1.1716   -1.9510 H   0  0
   -1.4994    2.6577   -1.0634 H   0  0
   -0.5823    1.7682    0.9052 H   0  0
    1.8003    2.2593    1.0060 H   0  0
    2.3181    0.0498   -0.0890 H   0  0
    3.3612    1.3785   -0.7348 H   0  0
    0.9676    0.8833   -4.5599 H   0  0
  1  6  1  0
  1  2  2  0
  2  3  1  0
  3  4  1  0
  4  5  2  0
  4  9  1  0
  5  6  1  0
  5  8  1  0
  6  7  2  0
  9 16  1  0
  9 10  1  0
  9 20  1  0
 10 14  1  0
 10 11  1  0
 11 12  1  0
 12 13  1  0
 12 18  1  0
 13 14  1  0
 13 15  1  0
 15 16  1  0
 16 17  2  0
 18 19  3  0
  1 21  1  0
  2 22  1  0
 10 23  1  0
 11 24  1  0
 11 25  1  0
 12 26  1  0
 13 27  1  0
 15 28  1  0
 15 29  1  0
 20 30  1  0
M  CHG  1   8  -1
M  END
> <Name>
ZINC17109594

> <reference>
BDB50021114

> <quality>
0.704

> <status>
decoy

$$$$
ZINC17638376
  SciTegic06061311253D

 31 32  0  0  1  0            999 V2000
   -5.4523    3.9506   -2.9614 C   0  0
   -6.5919    4.2312   -3.6875 C   0  0
   -7.2000    5.4678   -3.5771 C   0  0
   -6.6686    6.4357   -2.7352 C   0  0
   -5.5285    6.1630   -1.9985 C   0  0
   -4.9106    4.9172   -2.1130 C   0  0
   -3.6898    4.6201   -1.3335 C   0  0
   -3.2198    5.4636   -0.5952 O   0  0
   -3.0981    3.4141   -1.4417 N   0  0
   -1.8884    3.1197   -0.6694 C   0  0  1  0  0  0
   -2.2765    2.6043    0.7264 C   0  0
   -1.0373    1.9935    1.4273 C   0  0
   -0.0172    1.4168    0.0098 S   0  0
    0.0021   -0.0041    0.0020 O   0  0
    1.2102    2.1328    0.0020 O   0  0
   -1.0660    2.0097   -1.3842 C   0  0
   -8.4223    5.7610   -4.3588 N   0  0
   -8.8905    4.9134   -5.0977 O   0  0
   -8.9598    6.8497   -4.2632 O   0  0
   -7.2707    7.6497   -2.6305 O   0  5
   -4.9712    2.9655   -3.0514 H   0  0
   -7.0177    3.4685   -4.3561 H   0  0
   -5.1111    6.9261   -1.3250 H   0  0
   -3.4963    2.6993   -2.0674 H   0  0
   -1.2921    4.0401   -0.5837 H   0  0
   -2.6628    3.4388    1.3300 H   0  0
   -3.0568    1.8350    0.6293 H   0  0
   -0.4923    2.7655    1.9903 H   0  0
   -1.3289    1.1356    2.0511 H   0  0
   -0.4322    2.4386   -2.1743 H   0  0
   -1.7228    1.1983   -1.7311 H   0  0
  1  6  2  0
  1  2  1  0
  2  3  2  0
  3  4  1  0
  3 17  1  0
  4  5  2  0
  4 20  1  0
  5  6  1  0
  6  7  1  0
  7  8  2  0
  7  9  1  0
  9 10  1  0
 10 16  1  0
 10 11  1  0
 11 12  1  0
 12 13  1  0
 13 14  2  0
 13 15  2  0
 13 16  1  0
 17 18  2  0
 17 19  2  0
  1 21  1  0
  2 22  1  0
  5 23  1  0
  9 24  1  0
 10 25  1  0
 11 26  1  0
 11 27  1  0
 12 28  1  0
 12 29  1  0
 16 30  1  0
 16 31  1  0
M  CHG  1  20  -1
M  END
> <Name>
ZINC17638376

> <reference>
BDB50021114

> <quality>
0.701

> <status>
decoy

$$$$
ZINC08703751
  SciTegic06061311253D

 36 38  0  0  0  0            999 V2000
   -1.3206    3.3328    0.0264 C   0  0
   -2.5022    4.0134    0.0357 C   0  0
   -3.7109    3.3191    0.0377 C   0  0
   -3.7046    1.9109    0.0300 C   0  0
   -2.4986    1.2178    0.0148 C   0  0
   -1.3022    1.9311    0.0187 C   0  0
   -0.0144    1.2107    0.0087 C   0  0
    0.0021   -0.0041    0.0020 O   0  0
   -4.9973    1.2022    0.0333 C   0  0
   -5.0483   -0.0165    0.0270 O   0  0
   -6.1771    1.9838    0.0435 C   0  0
   -6.0952    3.3300    0.0504 C   0  0
   -4.9109    3.9892    0.0475 N   0  0
   -7.3705    4.1327    0.0612 C   0  0
   -6.7417    5.4331   -1.8832 C   0  0
   -7.1191    5.7448   -3.3338 C   0  0
   -8.4473    6.2737   -3.3724 O   0  0
   -9.4337    5.3932   -2.8271 C   0  0
   -9.0797    5.0780   -1.3714 C   0  0
    1.1431    1.9002    0.0013 O   0  5
   -7.7279    4.4811   -1.3310 N   0  0
   -0.3719    3.8895    0.0249 H   0  0
   -2.5015    5.1134    0.0416 H   0  0
   -2.4898    0.1179   -0.0001 H   0  0
   -7.1615    1.4930    0.0458 H   0  0
   -4.9102    5.0192    0.0528 H   0  0
   -8.1779    3.5352    0.5096 H   0  0
   -7.2222    5.0537    0.6440 H   0  0
   -6.7535    6.3600   -1.2910 H   0  0
   -5.7383    4.9833   -1.8519 H   0  0
   -6.4173    6.4854   -3.7448 H   0  0
   -7.0741    4.8229   -3.9322 H   0  0
  -10.4208    5.8769   -2.8678 H   0  0
   -9.4565    4.4600   -3.4089 H   0  0
   -9.0904    6.0056   -0.7803 H   0  0
   -9.8092    4.3650   -0.9597 H   0  0
  1  6  2  0
  1  2  1  0
  2  3  2  0
  3 13  1  0
  3  4  1  0
  4  5  2  0
  4  9  1  0
  5  6  1  0
  6  7  1  0
  7  8  2  0
  7 20  1  0
  9 10  2  0
  9 11  1  0
 11 12  2  0
 12 13  1  0
 12 14  1  0
 14 21  1  0
 15 16  1  0
 15 21  1  0
 16 17  1  0
 17 18  1  0
 18 19  1  0
 19 21  1  0
  1 22  1  0
  2 23  1  0
  5 24  1  0
 11 25  1  0
 13 26  1  0
 14 27  1  0
 14 28  1  0
 15 29  1  0
 15 30  1  0
 16 31  1  0
 16 32  1  0
 18 33  1  0
 18 34  1  0
 19 35  1  0
 19 36  1  0
M  CHG  1  20  -1
M  END
> <Name>
ZINC08703751

> <reference>
BDB50021114

> <quality>
0.699

> <status>
decoy

$$$$
ZINC08584443
  SciTegic06061311253D

 69 72  0  0  1  0            999 V2000
    1.9362   -3.4446    5.0211 C   0  0
    2.5773   -2.1815    5.5356 C   0  0
    1.8825   -0.9762    5.5551 C   0  0
    3.1297    0.1063    6.2384 S   0  0
    4.3806   -1.0823    6.4316 C   0  0
    3.8089   -2.1778    5.9802 N   0  0
    0.5582   -0.6866    5.1428 C   0  0
    0.0280    0.5432    5.3743 C   0  0
    0.7248    1.4711    6.1679 C   0  0
    1.1848    2.5765    5.5326 C   0  0
    1.9521    3.5189    6.2278 N   0  0
    2.0595    3.6844    7.7040 C   0  0  2  0  0  0
    3.3455    4.4646    7.4961 C   0  0  2  0  0  0
    2.8742    4.4590    6.0607 C   0  0
    3.2204    5.0956    5.0879 O   0  0
    4.5675    3.6931    7.7363 N   0  0
    5.7063    4.3253    8.0828 C   0  0
    5.6987    5.5234    8.2850 O   0  0
    6.9676    3.5591    8.2171 C   0  0
    7.2450    2.9520    9.3360 N   0  0
    6.3959    3.1121   10.4578 O   0  0
    6.8203    2.3902   11.6157 C   0  0
    7.9114    3.4836    7.0812 C   0  0
    9.0817    2.7823    7.1978 C   0  0
    9.7846    3.0340    5.5733 S   0  0
    8.4679    4.0444    4.9107 C   0  0
    7.6362    4.1017    5.9334 N   0  0
    8.3511    4.6162    3.6549 N   0  0
    2.2649    2.0052    8.3875 S   0  0
    0.8769    1.1210    7.6125 C   0  0
    0.8833    2.7819    4.1622 C   0  0
    1.2017    3.8232    3.6185 O   0  0
    0.2430    1.8224    3.4608 O   0  0
   -0.0286    2.0968    2.0849 C   0  0
    1.1972    1.9759    1.3161 O   0  0
    1.6437    0.7337    1.0724 C   0  0
    1.0305   -0.2210    1.4878 O   0  0
    2.9097    0.5298    0.2808 C   0  0  2  0  0  0
    3.1925   -0.9679    0.1480 C   0  0
    4.0767    1.2072    1.0018 C   0  0
    2.7451    1.1431   -1.1112 C   0  0
    2.0209   -4.1599    5.8525 H   0  0
    2.6079   -3.7942    4.2232 H   0  0
    0.8996   -3.3139    4.6769 H   0  0
    5.3970   -0.9519    6.8315 H   0  0
   -0.0408   -1.4571    4.6353 H   0  0
   -0.9464    0.8125    4.9407 H   0  0
    1.2933    4.1313    8.3546 H   0  0
    3.6264    5.3678    8.0577 H   0  0
    4.5564    2.6676    7.6404 H   0  0
    7.8337    2.7350   11.8687 H   0  0
    6.8728    1.3260   11.3424 H   0  0
    6.1333    2.5430   12.4611 H   0  0
    9.4797    2.2192    8.0548 H   0  0
    9.1582    4.4035    3.0514 H   0  0
    7.5642    5.1933    3.3253 H   0  0
    1.0419    0.0373    7.7037 H   0  0
   -0.0539    1.3730    8.1418 H   0  0
   -0.4241    3.1183    1.9847 H   0  0
   -0.7703    1.3777    1.7069 H   0  0
    2.3541   -1.4559   -0.3706 H   0  0
    3.3112   -1.4098    1.1483 H   0  0
    4.1165   -1.1175   -0.4298 H   0  0
    4.1960    0.7668    2.0027 H   0  0
    3.8744    2.2842    1.0975 H   0  0
    5.0012    1.0587    0.4245 H   0  0
    2.5420    2.2201   -1.0169 H   0  0
    1.9064    0.6565   -1.6306 H   0  0
    3.6689    0.9946   -1.6896 H   0  0
  1  2  1  0
  2  6  1  0
  2  3  2  0
  3  4  1  0
  3  7  1  0
  4  5  1  0
  5  6  2  0
  7  8  2  0
  8  9  1  0
  9 30  1  0
  9 10  2  0
 10 11  1  0
 10 31  1  0
 11 14  1  0
 11 12  1  0
 12 13  1  0
 12 29  1  0
 13 14  1  0
 13 16  1  0
 14 15  2  0
 16 17  1  0
 17 18  2  0
 17 19  1  0
 19 20  2  0
 19 23  1  0
 20 21  1  0
 21 22  1  0
 23 27  1  0
 23 24  2  0
 24 25  1  0
 25 26  1  0
 26 27  2  0
 26 28  1  0
 29 30  1  0
 31 32  2  0
 31 33  1  0
 33 34  1  0
 34 35  1  0
 35 36  1  0
 36 37  2  0
 36 38  1  0
 38 39  1  0
 38 40  1  0
 38 41  1  0
  1 42  1  0
  1 43  1  0
  1 44  1  0
  5 45  1  0
  7 46  1  0
  8 47  1  0
 12 48  1  0
 13 49  1  0
 16 50  1  0
 22 51  1  0
 22 52  1  0
 22 53  1  0
 24 54  1  0
 28 55  1  0
 28 56  1  0
 30 57  1  0
 30 58  1  0
 34 59  1  0
 34 60  1  0
 39 61  1  0
 39 62  1  0
 39 63  1  0
 40 64  1  0
 40 65  1  0
 40 66  1  0
 41 67  1  0
 41 68  1  0
 41 69  1  0
M  END
> <Name>
ZINC08584443

> <reference>
BDB50038593

> <quality>
0.798

> <status>
decoy

$$$$
ZINC04068415
  SciTegic06061311253D

 74 78  0  0  1  0            999 V2000
   -6.9562   -0.7353    5.6002 C   0  0
   -5.9401    0.3771    5.6345 C   0  0
   -4.6449    0.1172    5.9309 C   0  0
   -3.7317    1.1588    5.9569 N   0  0
   -3.9051    2.2975    5.0470 C   0  0  2  0  0  0
   -5.3534    2.7164    5.0592 C   0  0
   -6.3394    1.7647    5.3457 C   0  0
   -7.6839    2.1391    5.3551 C   0  0
   -8.0292    3.4476    5.0836 C   0  0
   -7.0488    4.3834    4.8039 C   0  0
   -5.7127    4.0179    4.7917 C   0  0
   -3.5197    1.9038    3.6895 N   0  0
   -2.3015    2.3161    3.1667 C   0  0
   -1.4864    3.1781    3.8904 C   0  0
   -0.2764    3.5862    3.3687 C   0  0
    0.1366    3.1421    2.1221 C   0  0
   -0.6568    2.2871    1.3898 C   0  0
   -1.8882    1.8678    1.9019 C   0  0
   -2.7446    0.9584    1.1215 C   0  0
   -2.6904   -0.2405    1.3124 O   0  0
   -0.1239    1.7284   -0.1940 S   0  0
   -0.3202    0.3212   -0.2154 O   0  0
    1.1445    2.3243   -0.4293 O   0  0
   -1.1624    2.3682   -1.3140 N   0  5
   -1.2836    3.7496   -1.4419 C   0  0
   -0.1702    4.5635   -1.2638 C   0  0
   -0.2843    5.9294   -1.3950 C   0  0
   -1.5237    6.5019   -1.6965 C   0  0
   -2.6453    5.6842   -1.8701 C   0  0
   -2.5241    4.3154   -1.7431 C   0  0
   -3.6127    3.5176   -1.9118 O   0  0
   -1.6481    7.9642   -1.8316 C   0  0
   -2.7258    8.4606   -2.0940 O   0  0
   -4.2374   -1.1758    6.2055 N   0  3
   -2.8620   -1.4338    6.6390 C   0  0
   -2.6742   -2.9339    6.8742 C   0  0  1  0  0  0
   -1.2085   -3.2219    7.2158 C   0  0
   -1.0553   -4.6970    7.5920 C   0  0
   -1.8645   -5.0014    8.8538 C   0  0
   -3.3539   -4.7811    8.5689 C   0  0
   -3.5387   -3.3786    8.0332 C   0  0
   -4.3556   -2.6331    8.5181 O   0  0
   -3.5883    1.4560    0.1958 O   0  5
   -0.5668    8.7508   -1.6641 O   0  5
   -7.3964   -0.6783    4.5937 H   0  0
   -7.7373   -0.4197    6.3075 H   0  0
   -6.5494   -1.7308    5.8313 H   0  0
   -2.9361    1.1343    6.6106 H   0  0
   -3.2717    3.1355    5.3734 H   0  0
   -8.4637    1.3958    5.5775 H   0  0
   -9.0875    3.7477    5.0896 H   0  0
   -7.3324    5.4244    4.5898 H   0  0
   -4.9392    4.7674    4.5683 H   0  0
   -4.1525    1.3211    3.1230 H   0  0
   -1.8064    3.5354    4.8803 H   0  0
    0.3651    4.2686    3.9457 H   0  0
    1.1032    3.4744    1.7156 H   0  0
    0.8037    4.1152   -1.0176 H   0  0
    0.5998    6.5703   -1.2626 H   0  0
   -3.6219    6.1313   -2.1074 H   0  0
   -3.6798    2.9975   -1.0721 H   0  0
   -4.8711   -1.5556    6.9232 H   0  0
   -4.4150   -1.7438    5.3648 H   0  0
   -2.1624   -1.0948    5.8607 H   0  0
   -2.6627   -0.8891    7.5737 H   0  0
   -2.9606   -3.4782    5.9622 H   0  0
   -0.5775   -2.9990    6.3428 H   0  0
   -0.8979   -2.5936    8.0636 H   0  0
    0.0059   -4.9198    7.7768 H   0  0
   -1.4189   -5.3248    6.7651 H   0  0
   -1.6994   -6.0472    9.1522 H   0  0
   -1.5444   -4.3327    9.6664 H   0  0
   -3.9299   -4.8991    9.4986 H   0  0
   -3.6982   -5.5098    7.8203 H   0  0
  1  2  1  0
  2  7  1  0
  2  3  2  0
  3  4  1  0
  3 34  1  0
  4  5  1  0
  5  6  1  0
  5 12  1  0
  6 11  2  0
  6  7  1  0
  7  8  2  0
  8  9  1  0
  9 10  2  0
 10 11  1  0
 12 13  1  0
 13 18  2  0
 13 14  1  0
 14 15  2  0
 15 16  1  0
 16 17  2  0
 17 18  1  0
 17 21  1  0
 18 19  1  0
 19 20  2  0
 19 43  1  0
 21 22  2  0
 21 23  2  0
 21 24  1  0
 24 25  1  0
 25 30  2  0
 25 26  1  0
 26 27  2  0
 27 28  1  0
 28 29  2  0
 28 32  1  0
 29 30  1  0
 30 31  1  0
 32 33  2  0
 32 44  1  0
 34 35  1  0
 35 36  1  0
 36 41  1  0
 36 37  1  0
 37 38  1  0
 38 39  1  0
 39 40  1  0
 40 41  1  0
 41 42  2  0
  1 45  1  0
  1 46  1  0
  1 47  1  0
  4 48  1  0
  5 49  1  0
  8 50  1  0
  9 51  1  0
 10 52  1  0
 11 53  1  0
 12 54  1  0
 14 55  1  0
 15 56  1  0
 16 57  1  0
 26 58  1  0
 27 59  1  0
 29 60  1  0
 31 61  1  0
 34 62  1  0
 34 63  1  0
 35 64  1  0
 35 65  1  0
 36 66  1  0
 37 67  1  0
 37 68  1  0
 38 69  1  0
 38 70  1  0
 39 71  1  0
 39 72  1  0
 40 73  1  0
 40 74  1  0
M  CHG  4  24  -1  34   1  43  -1  44  -1
M  END
> <Name>
ZINC04068415

> <reference>
BDB50038593

> <quality>
0.783

> <status>
decoy

$$$$
ZINC14978044
  SciTegic06061311253D

 63 65  0  0  1  0            999 V2000
   -5.4956   -7.9410   -3.4633 C   0  0
   -5.5178   -6.7725   -2.4759 C   0  0  1  0  0  0
   -6.6236   -5.7918   -2.8712 C   0  0
   -5.7816   -7.2937   -1.0867 C   0  0
   -4.8511   -7.0871   -0.0640 C   0  0
   -5.1494   -7.5908    1.2189 C   0  0
   -6.2947   -8.2423    1.4011 N   0  0
   -7.1413   -8.4166    0.3987 C   0  0
   -6.8931   -7.9561   -0.8200 N   0  0
   -8.3229   -9.1005    0.6298 N   0  0
   -8.5550   -9.6913    1.8706 C   0  0
   -7.7638   -9.5833    2.9688 C   0  0
   -8.3623  -10.3288    4.0059 C   0  0
   -9.4693  -10.8698    3.5347 N   0  0
   -9.6112  -10.4837    2.1959 N   0  0
  -10.7071  -10.8661    1.3019 C   0  0
   -7.8386  -10.4813    5.3774 C   0  0
   -6.8034   -9.9316    5.6970 O   0  0
   -4.2047   -7.3983    2.3427 C   0  0
   -2.8290   -7.4227    2.1124 C   0  0
   -1.9531   -7.2376    3.1615 C   0  0
   -2.4375   -7.0381    4.4447 C   0  0
   -3.8033   -7.0187    4.6795 C   0  0
   -4.6873   -7.1976    3.6361 C   0  0
   -1.5755   -6.8624    5.4700 F   0  0
   -3.5942   -6.3567   -0.3185 C   0  0
   -3.2332   -5.3592    0.4790 C   0  0
   -1.9498   -4.6133    0.2191 C   0  0  2  0  0  0
   -2.2450   -3.1170    0.0979 C   0  0
   -0.9301   -2.3473   -0.0413 C   0  0  2  0  0  0
   -1.2160   -0.8443   -0.0373 C   0  0
    0.0859   -0.0853   -0.0506 C   0  0
    1.1347   -0.6850   -0.0621 O   0  0
   -0.2947   -2.7081   -1.2694 O   0  0
   -1.3635   -5.0832   -0.9964 O   0  0
   -8.5087  -11.2300    6.2750 O   0  5
    0.0802    1.2570   -0.0496 O   0  5
   -5.3028   -7.5617   -4.4777 H   0  0
   -6.4667   -8.4573   -3.4439 H   0  0
   -4.7008   -8.6465   -3.1797 H   0  0
   -4.5462   -6.2571   -2.4958 H   0  0
   -7.5957   -6.3062   -2.8513 H   0  0
   -6.4319   -5.4106   -3.8850 H   0  0
   -6.6401   -4.9514   -2.1617 H   0  0
   -9.0304   -9.1726   -0.1153 H   0  0
   -6.8240   -9.0158    3.0374 H   0  0
  -10.1750  -11.3081    0.4466 H   0  0
  -11.0812   -9.8926    0.9521 H   0  0
  -11.4854  -11.5165    1.7277 H   0  0
   -2.4435   -7.5893    1.0957 H   0  0
   -0.8683   -7.2483    2.9796 H   0  0
   -4.1829   -6.8604    5.6997 H   0  0
   -5.7711   -7.1821    3.8235 H   0  0
   -2.9566   -6.6391   -1.1692 H   0  0
   -3.8708   -5.0769    1.3297 H   0  0
   -1.2520   -4.7830    1.0523 H   0  0
   -2.8702   -2.9371   -0.7891 H   0  0
   -2.7769   -2.7730    0.9972 H   0  0
   -0.2682   -2.5968    0.8011 H   0  0
   -1.7842   -0.5804    0.8669 H   0  0
   -1.8029   -0.5802   -0.9294 H   0  0
   -0.8896   -2.4837   -2.0282 H   0  0
   -1.9908   -4.9307   -1.7470 H   0  0
  1  2  1  0
  2  3  1  0
  2  4  1  0
  4  9  2  0
  4  5  1  0
  5  6  2  0
  5 26  1  0
  6  7  1  0
  6 19  1  0
  7  8  2  0
  8  9  1  0
  8 10  1  0
 10 11  1  0
 11 15  1  0
 11 12  2  0
 12 13  1  0
 13 14  2  0
 13 17  1  0
 14 15  1  0
 15 16  1  0
 17 18  2  0
 17 36  1  0
 19 24  2  0
 19 20  1  0
 20 21  2  0
 21 22  1  0
 22 23  2  0
 22 25  1  0
 23 24  1  0
 26 27  2  0
 27 28  1  0
 28 29  1  0
 28 35  1  0
 29 30  1  0
 30 31  1  0
 30 34  1  0
 31 32  1  0
 32 33  2  0
 32 37  1  0
  1 38  1  0
  1 39  1  0
  1 40  1  0
  2 41  1  0
  3 42  1  0
  3 43  1  0
  3 44  1  0
 10 45  1  0
 12 46  1  0
 16 47  1  0
 16 48  1  0
 16 49  1  0
 20 50  1  0
 21 51  1  0
 23 52  1  0
 24 53  1  0
 26 54  1  0
 27 55  1  0
 28 56  1  0
 29 57  1  0
 29 58  1  0
 30 59  1  0
 31 60  1  0
 31 61  1  0
 34 62  1  0
 35 63  1  0
M  CHG  2  36  -1  37  -1
M  END
> <Name>
ZINC14978044

> <reference>
BDB50038593

> <quality>
0.769

> <status>
decoy

$$$$
ZINC16052384
  SciTegic06061311253D

 81 83  0  0  1  0            999 V2000
    5.3177    4.5544    2.5383 C   0  0
    5.2960    4.3046    1.0289 C   0  0  1  0  0  0
    6.2364    3.1464    0.6900 C   0  0
    3.8732    3.9515    0.5908 C   0  0  2  0  0  0
    3.4933    2.6573    1.1628 N   0  0
    2.2777    2.4990    1.7230 C   0  0
    1.5004    3.4292    1.7580 O   0  0
    1.8845    1.1660    2.3058 C   0  0  2  0  0  0
    1.9292    0.0977    1.2114 C   0  0
    1.6561   -1.2546    1.8180 C   0  0
    2.7032   -2.0268    2.2849 C   0  0
    2.4522   -3.2651    2.8457 C   0  0
    1.1552   -3.7357    2.9300 C   0  0
    0.1086   -2.9656    2.4583 C   0  0
    0.3590   -1.7251    1.9023 C   0  0
    0.5267    1.2520    2.8492 N   0  0
    0.1396    0.4141    3.8313 C   0  0
    0.9168   -0.4127    4.2660 O   0  0
   -1.1082    0.4931    4.3306 O   0  0
   -1.4560   -0.4408    5.3866 C   0  0
   -2.8809   -0.2047    5.8169 C   0  0
   -3.1560    0.6858    6.8379 C   0  0
   -4.4634    0.9059    7.2293 C   0  0
   -5.4947    0.2283    6.6065 C   0  0
   -5.2191   -0.6663    5.5893 C   0  0
   -3.9122   -0.8826    5.1944 C   0  0
    3.8037    3.8557   -1.2283 P   0  0
    4.6122    2.7066   -1.6931 O   0  0
    4.4682    5.3952   -1.9437 C   0  0
    4.5390    5.2611   -3.4662 C   0  0  1  0  0  0
    4.7292    6.6232   -4.0821 C   0  0
    5.8432    7.3774   -3.7605 C   0  0
    6.0212    8.6278   -4.3231 C   0  0
    5.0866    9.1276   -5.2088 C   0  0
    3.9673    8.3729   -5.5342 C   0  0
    3.7941    7.1149   -4.9713 C   0  0
    3.0190    8.8762   -6.4308 N   0  0
    2.7484   10.2255   -6.4609 C   0  0
    1.9039   10.7362   -7.4185 N   0  0
    5.6993    4.3747   -3.8391 C   0  0
    6.3979    3.8991   -2.9757 O   0  0
    2.2759    3.6617   -1.6975 O   0  5
    3.3328   10.9782   -5.5403 N   0  3
    5.9565    4.1136   -5.1303 O   0  5
    6.3402    4.8088    2.8542 H   0  0
    4.9865    3.6477    3.0658 H   0  0
    4.6417    5.3871    2.7826 H   0  0
    5.6272    5.2118    0.5023 H   0  0
    5.9060    2.2385    1.2159 H   0  0
    7.2597    3.3996    1.0043 H   0  0
    6.2213    2.9663   -0.3951 H   0  0
    3.1776    4.7270    0.9440 H   0  0
    4.1551    1.8685    1.1368 H   0  0
    2.5849    0.8965    3.1100 H   0  0
    2.9238    0.0939    0.7416 H   0  0
    1.1654    0.3190    0.4513 H   0  0
    3.7361   -1.6560    2.2102 H   0  0
    3.2846   -3.8760    3.2249 H   0  0
    0.9559   -4.7229    3.3724 H   0  0
   -0.9235   -3.3400    2.5254 H   0  0
   -0.4738   -1.1123    1.5269 H   0  0
   -0.1321    1.9528    2.4807 H   0  0
   -0.7849   -0.2915    6.2453 H   0  0
   -1.3518   -1.4707    5.0145 H   0  0
   -2.3346    1.2192    7.3388 H   0  0
   -4.6830    1.6203    8.0364 H   0  0
   -6.5348    0.4009    6.9203 H   0  0
   -6.0398   -1.2060    5.0941 H   0  0
   -3.6929   -1.5942    4.3848 H   0  0
    5.4767    5.5805   -1.5454 H   0  0
    3.8097    6.2361   -1.6804 H   0  0
    3.6041    4.8174   -3.8390 H   0  0
    6.5891    6.9815   -3.0556 H   0  0
    6.9081    9.2252   -4.0650 H   0  0
    5.2288   10.1225   -5.6560 H   0  0
    2.9129    6.5110   -5.2336 H   0  0
    2.5232    8.2372   -7.0685 H   0  0
    1.4738   10.1091   -8.1132 H   0  0
    1.7014   11.7458   -7.4410 H   0  0
    3.9637   10.5835   -4.8282 H   0  0
    3.1456   11.9910   -5.5426 H   0  0
  1  2  1  0
  2  3  1  0
  2  4  1  0
  4  5  1  0
  4 27  1  0
  5  6  1  0
  6  7  2  0
  6  8  1  0
  8  9  1  0
  8 16  1  0
  9 10  1  0
 10 15  2  0
 10 11  1  0
 11 12  2  0
 12 13  1  0
 13 14  2  0
 14 15  1  0
 16 17  1  0
 17 18  2  0
 17 19  1  0
 19 20  1  0
 20 21  1  0
 21 26  2  0
 21 22  1  0
 22 23  2  0
 23 24  1  0
 24 25  2  0
 25 26  1  0
 27 28  2  0
 27 29  1  0
 27 42  1  0
 29 30  1  0
 30 31  1  0
 30 40  1  0
 31 36  2  0
 31 32  1  0
 32 33  2  0
 33 34  1  0
 34 35  2  0
 35 36  1  0
 35 37  1  0
 37 38  1  0
 38 39  1  0
 38 43  2  0
 40 41  2  0
 40 44  1  0
  1 45  1  0
  1 46  1  0
  1 47  1  0
  2 48  1  0
  3 49  1  0
  3 50  1  0
  3 51  1  0
  4 52  1  0
  5 53  1  0
  8 54  1  0
  9 55  1  0
  9 56  1  0
 11 57  1  0
 12 58  1  0
 13 59  1  0
 14 60  1  0
 15 61  1  0
 16 62  1  0
 20 63  1  0
 20 64  1  0
 22 65  1  0
 23 66  1  0
 24 67  1  0
 25 68  1  0
 26 69  1  0
 29 70  1  0
 29 71  1  0
 30 72  1  0
 32 73  1  0
 33 74  1  0
 34 75  1  0
 36 76  1  0
 37 77  1  0
 39 78  1  0
 39 79  1  0
 43 80  1  0
 43 81  1  0
M  CHG  3  42  -1  43   1  44  -1
M  END
> <Name>
ZINC16052384

> <reference>
BDB50038593

> <quality>
0.737

> <status>
decoy

$$$$
ZINC20911602
  SciTegic06061311253D

 63 65  0  0  0  0            999 V2000
    2.2536  -12.6310   -0.0862 C   0  0
    1.4097  -13.8795   -0.0847 C   0  0
   -0.0009  -13.9257   -0.0724 C   0  0
   -0.3669  -15.2541   -0.0708 C   0  0
    0.7666  -15.9845   -0.0899 N   0  0
    1.8565  -15.1065   -0.0951 N   0  0
    0.8439  -17.4474   -0.0990 C   0  0  1  0  0  0
    1.5799  -17.9114   -1.3575 C   0  0
    1.6022  -17.9257    1.1408 C   0  0
   -1.7747  -15.7917   -0.0543 C   0  0
   -0.9144  -12.7662   -0.0574 C   0  0
   -0.4332  -11.5611   -0.0552 N   0  0
   -1.3002  -10.4607   -0.0410 N   0  0
   -0.7858   -9.1724   -0.0386 C   0  0
    0.4850   -8.8499   -0.0491 N   0  0
    0.5769   -7.4519   -0.0477 N   0  0
   -0.6410   -6.9657   -0.0281 C   0  0
   -1.5149   -8.0158   -0.0254 N   0  0
   -2.8779   -7.9261   -0.0118 N   0  0
   -1.0742   -5.2578   -0.0153 S   0  0
    0.5240   -4.3997   -0.0258 C   0  0
    0.2944   -2.9103   -0.0160 C   0  0
   -0.8361   -2.4710   -0.0033 O   0  0
    1.3453   -2.0665   -0.0215 N   0  0
    1.1332   -0.6900   -0.0125 C   0  0
    0.0021   -0.0041    0.0020 N   0  0
   -0.0150    1.2570    0.0090 N   0  0
    1.1000    1.9728    0.0022 C   0  0
    2.3136    0.6564   -0.0165 S   0  0
    1.3244    3.7204    0.0086 S   0  0
   -0.3654    4.3798    0.0281 C   0  0
   -0.3161    5.9090    0.0351 C   0  0  1  0  0  0
    0.2970    6.4055   -1.2758 C   0  0
   -1.7346    6.4643    0.1773 C   0  0
    2.8911  -12.7682   -0.9721 H   0  0
    2.9075  -12.7771    0.7862 H   0  0
    1.7044  -11.6779   -0.0762 H   0  0
   -0.1723  -17.8683   -0.0924 H   0  0
    2.5964  -17.4912   -1.3649 H   0  0
    1.0354  -17.5682   -2.2495 H   0  0
    1.6383  -19.0098   -1.3650 H   0  0
    1.0737  -17.5928    2.0463 H   0  0
    2.6188  -17.5055    1.1349 H   0  0
    1.6606  -19.0241    1.1346 H   0  0
   -2.2278  -15.2942   -0.9245 H   0  0
   -2.2058  -15.2982    0.8292 H   0  0
   -1.8837  -16.8863   -0.0554 H   0  0
   -2.0030  -12.9238   -0.0481 H   0  0
   -2.3195  -10.6083   -0.0323 H   0  0
   -3.3848   -8.8227   -0.0117 H   0  0
   -3.3815   -7.0277   -0.0022 H   0  0
    1.0847   -4.6776   -0.9305 H   0  0
    1.1005   -4.6872    0.8658 H   0  0
    2.3053   -2.4396   -0.0324 H   0  0
   -0.8877    4.0264    0.9294 H   0  0
   -0.9040    4.0349   -0.8669 H   0  0
    0.2984    6.2522    0.8804 H   0  0
   -0.3170    6.0631   -2.1218 H   0  0
    1.3171    6.0070   -1.3788 H   0  0
    0.3327    7.5049   -1.2714 H   0  0
   -2.1762    6.1081    1.1197 H   0  0
   -2.3500    6.1219   -0.6677 H   0  0
   -1.6999    7.5637    0.1824 H   0  0
  1  2  1  0
  2  6  2  0
  2  3  1  0
  3  4  2  0
  3 11  1  0
  4  5  1  0
  4 10  1  0
  5  6  1  0
  5  7  1  0
  7  8  1  0
  7  9  1  0
 11 12  2  0
 12 13  1  0
 13 14  1  0
 14 18  1  0
 14 15  2  0
 15 16  1  0
 16 17  2  0
 17 18  1  0
 17 20  1  0
 18 19  1  0
 20 21  1  0
 21 22  1  0
 22 23  2  0
 22 24  1  0
 24 25  1  0
 25 29  1  0
 25 26  2  0
 26 27  1  0
 27 28  2  0
 28 29  1  0
 28 30  1  0
 30 31  1  0
 31 32  1  0
 32 33  1  0
 32 34  1  0
  1 35  1  0
  1 36  1  0
  1 37  1  0
  7 38  1  0
  8 39  1  0
  8 40  1  0
  8 41  1  0
  9 42  1  0
  9 43  1  0
  9 44  1  0
 10 45  1  0
 10 46  1  0
 10 47  1  0
 11 48  1  0
 13 49  1  0
 19 50  1  0
 19 51  1  0
 21 52  1  0
 21 53  1  0
 24 54  1  0
 31 55  1  0
 31 56  1  0
 32 57  1  0
 33 58  1  0
 33 59  1  0
 33 60  1  0
 34 61  1  0
 34 62  1  0
 34 63  1  0
M  END
> <Name>
ZINC20911602

> <reference>
BDB50038593

> <quality>
0.730

> <status>
decoy

$$$$
ZINC13729666
  SciTegic06061311253D

 63 67  0  0  1  0            999 V2000
    2.3259    7.9519    0.3329 C   0  0
    3.4097    6.8719    0.3338 C   0  0
    2.7997    5.5848    0.2183 O   0  0
    3.6294    4.5075    0.2038 C   0  0
    5.0003    4.6856    0.2982 C   0  0
    5.8424    3.5894    0.2823 C   0  0
    5.3201    2.3139    0.1729 C   0  0
    3.9531    2.1287    0.0846 C   0  0
    3.1035    3.2237    0.0937 C   0  0
    1.7589    3.0437    0.0007 O   0  0
    1.3009    1.7962   -0.2609 C   0  0
    2.0290    0.7440   -0.5569 N   0  0
    1.2812   -0.2823   -0.7481 N   0  0
    0.0407    0.0316   -0.5914 N   0  0
    0.0056    1.3994   -0.2676 N   0  0
   -1.1275    2.1855   -0.0124 C   0  0
   -1.0723    3.1979    0.9358 C   0  0
   -2.1882    3.9739    1.1812 C   0  0
   -3.3628    3.7361    0.4914 C   0  0
   -3.4223    2.7249   -0.4500 C   0  0
   -2.3080    1.9491   -0.7034 C   0  0
    7.3331    3.7850    0.3851 C   0  0
    9.1837    3.9523    1.9374 C   0  0  2  0  0  0
    9.6548    3.3301    3.2534 C   0  0
    9.4492    1.8380    3.2055 C   0  0
    8.3896    1.1624    3.6775 C   0  0
    8.5541   -0.1778    3.4556 N   0  0
    9.7542   -0.4030    2.8193 C   0  0
   10.3650    0.8503    2.6295 C   0  0
   11.6114    0.9303    2.0062 C   0  0
   12.2281   -0.2100    1.5736 C   0  0
   11.6273   -1.4481    1.7534 C   0  0
   10.3997   -1.5505    2.3708 C   0  0
    9.5015    5.4255    1.9362 C   0  0
    8.6112    6.2354    1.8302 O   0  0
    7.7267    3.7628    1.8065 N   0  3
   10.7735    5.8377    2.0527 O   0  5
    1.6462    7.7914    1.1828 H   0  0
    1.7559    7.9000   -0.6065 H   0  0
    2.7948    8.9430    0.4218 H   0  0
    4.0887    7.0329   -0.5165 H   0  0
    3.9797    6.9237    1.2731 H   0  0
    5.4185    5.6992    0.3858 H   0  0
    5.9939    1.4446    0.1561 H   0  0
    3.5396    1.1123    0.0071 H   0  0
   -0.1408    3.3819    1.4911 H   0  0
   -2.1425    4.7819    1.9262 H   0  0
   -4.2516    4.3525    0.6919 H   0  0
   -4.3579    2.5382   -0.9975 H   0  0
   -2.3560    1.1446   -1.4521 H   0  0
    7.8481    2.9742   -0.1510 H   0  0
    7.6091    4.7538   -0.0569 H   0  0
    9.6971    3.4680    1.0937 H   0  0
    9.0760    3.7526    4.0880 H   0  0
   10.7229    3.5480    3.4005 H   0  0
    7.5181    1.6186    4.1698 H   0  0
    7.8805   -0.9092    3.7245 H   0  0
   12.0955    1.9077    1.8637 H   0  0
   13.2085   -0.1460    1.0789 H   0  0
   12.1362   -2.3568    1.3995 H   0  0
    9.9318   -2.5364    2.5085 H   0  0
    7.2383    4.5185    2.3079 H   0  0
    7.4624    2.8576    2.2208 H   0  0
  1  2  1  0
  2  3  1  0
  3  4  1  0
  4  9  2  0
  4  5  1  0
  5  6  2  0
  6  7  1  0
  6 22  1  0
  7  8  2  0
  8  9  1  0
  9 10  1  0
 10 11  1  0
 11 15  1  0
 11 12  2  0
 12 13  1  0
 13 14  2  0
 14 15  1  0
 15 16  1  0
 16 21  2  0
 16 17  1  0
 17 18  2  0
 18 19  1  0
 19 20  2  0
 20 21  1  0
 22 36  1  0
 23 24  1  0
 23 34  1  0
 23 36  1  0
 24 25  1  0
 25 29  1  0
 25 26  2  0
 26 27  1  0
 27 28  1  0
 28 33  2  0
 28 29  1  0
 29 30  2  0
 30 31  1  0
 31 32  2  0
 32 33  1  0
 34 35  2  0
 34 37  1  0
  1 38  1  0
  1 39  1  0
  1 40  1  0
  2 41  1  0
  2 42  1  0
  5 43  1  0
  7 44  1  0
  8 45  1  0
 17 46  1  0
 18 47  1  0
 19 48  1  0
 20 49  1  0
 21 50  1  0
 22 51  1  0
 22 52  1  0
 23 53  1  0
 24 54  1  0
 24 55  1  0
 26 56  1  0
 27 57  1  0
 30 58  1  0
 31 59  1  0
 32 60  1  0
 33 61  1  0
 36 62  1  0
 36 63  1  0
M  CHG  2  36   1  37  -1
M  END
> <Name>
ZINC13729666

> <reference>
BDB50038593

> <quality>
0.714

> <status>
decoy

$$$$
ZINC23618047
  SciTegic06061311253D

 67 69  0  0  0  0            999 V2000
   -0.2251   15.8049   -1.6945 C   0  0
   -1.6194   16.1478   -2.2231 C   0  0  1  0  0  0
   -1.5524   16.3630   -3.7364 C   0  0
   -2.5410   15.0431   -1.9259 N   0  3
   -2.5217   14.0386   -2.9977 C   0  0
   -1.1829   13.2983   -2.9787 C   0  0
   -1.2208   12.1958   -3.9427 N   0  0
    0.1852   11.4569   -4.4112 S   0  0
    1.0915   12.4936   -4.7620 O   0  0
   -0.1805   10.4257   -5.3179 O   0  0
    0.8553   10.6622   -2.9885 C   0  0
    0.5055    9.3559   -2.6989 C   0  0
    1.0291    8.7300   -1.5850 C   0  0
    1.9083    9.4141   -0.7547 C   0  0
    2.2530   10.7278   -1.0453 C   0  0
    1.7300   11.3459   -2.1643 C   0  0
    3.1844   11.4624   -0.1603 N   0  0
    3.1317   11.3029    1.0460 O   0  0
    4.0037   12.2265   -0.6384 O   0  0
    2.4399    8.7840    0.3728 N   0  0
    2.0089    7.4291    0.7262 C   0  0
    2.7378    6.9763    1.9930 C   0  0
    2.2945    5.5826    2.3565 C   0  0
    3.1081    4.5201    2.5422 C   0  0
    2.3126    3.4521    2.8570 N   0  0
    2.5901    2.1467    3.1425 C   0  0
    1.5960    1.2789    3.4255 C   0  0
    0.2586    1.7084    3.4246 C   0  0
   -0.0314    3.0083    3.1479 C   0  0
    1.0178    3.9021    2.8539 C   0  0
    1.0324    5.1920    2.5489 N   0  0
   -3.9036   15.5416   -1.6962 C   0  0  1  0  0  0
   -4.8312   14.3655   -1.3847 C   0  0
   -3.8985   16.5139   -0.5148 C   0  0
    0.4658   16.6316   -1.9163 H   0  0
    0.1361   14.8859   -2.1792 H   0  0
   -0.2725   15.6500   -0.6065 H   0  0
   -1.9799   17.0667   -1.7377 H   0  0
   -1.1923   15.4445   -4.2229 H   0  0
   -0.8626   17.1902   -3.9600 H   0  0
   -2.5545   16.6096   -4.1171 H   0  0
   -2.2203   14.5878   -1.0595 H   0  0
   -2.6510   14.5360   -3.9703 H   0  0
   -3.3397   13.3199   -2.8417 H   0  0
   -0.9987   12.8972   -1.9711 H   0  0
   -0.3752   13.9941   -3.2497 H   0  0
   -2.1219   11.8803   -4.3291 H   0  0
   -0.1906    8.8149   -3.3567 H   0  0
    0.7505    7.6910   -1.3553 H   0  0
    2.0097   12.3833   -2.4001 H   0  0
    3.1349    9.2719    0.9558 H   0  0
    0.9238    7.4247    0.9067 H   0  0
    2.2463    6.7408   -0.0984 H   0  0
    3.8230    6.9801    1.8130 H   0  0
    2.5007    7.6629    2.8191 H   0  0
    4.2047    4.5146    2.4564 H   0  0
    3.6336    1.7987    3.1419 H   0  0
    1.8342    0.2304    3.6579 H   0  0
   -0.5504    0.9969    3.6466 H   0  0
   -1.0742    3.3583    3.1536 H   0  0
   -4.2606   16.0615   -2.5975 H   0  0
   -4.4751   13.8451   -0.4834 H   0  0
   -4.8357   13.6659   -2.2336 H   0  0
   -5.8518   14.7381   -1.2126 H   0  0
   -3.2320   17.3601   -0.7379 H   0  0
   -3.5418   15.9949    0.3871 H   0  0
   -4.9186   16.8876   -0.3422 H   0  0
  1  2  1  0
  2  3  1  0
  2  4  1  0
  4  5  1  0
  4 32  1  0
  5  6  1  0
  6  7  1  0
  7  8  1  0
  8  9  2  0
  8 10  2  0
  8 11  1  0
 11 16  2  0
 11 12  1  0
 12 13  2  0
 13 14  1  0
 14 15  2  0
 14 20  1  0
 15 16  1  0
 15 17  1  0
 17 18  2  0
 17 19  2  0
 20 21  1  0
 21 22  1  0
 22 23  1  0
 23 31  1  0
 23 24  2  0
 24 25  1  0
 25 30  1  0
 25 26  1  0
 26 27  2  0
 27 28  1  0
 28 29  2  0
 29 30  1  0
 30 31  2  0
 32 33  1  0
 32 34  1  0
  1 35  1  0
  1 36  1  0
  1 37  1  0
  2 38  1  0
  3 39  1  0
  3 40  1  0
  3 41  1  0
  4 42  1  0
  5 43  1  0
  5 44  1  0
  6 45  1  0
  6 46  1  0
  7 47  1  0
 12 48  1  0
 13 49  1  0
 16 50  1  0
 20 51  1  0
 21 52  1  0
 21 53  1  0
 22 54  1  0
 22 55  1  0
 24 56  1  0
 26 57  1  0
 27 58  1  0
 28 59  1  0
 29 60  1  0
 32 61  1  0
 33 62  1  0
 33 63  1  0
 33 64  1  0
 34 65  1  0
 34 66  1  0
 34 67  1  0
M  CHG  1   4   1
M  END
> <Name>
ZINC23618047

> <reference>
BDB50038593

> <quality>
0.703

> <status>
decoy

$$$$
ZINC28540719
  SciTegic06061311253D

108112  0  0  1  0            999 V2000
    1.1683   -8.3702    0.3451 C   0  0
    1.4961   -6.9250    0.0716 C   0  0
    2.0399   -6.6139   -0.9616 O   0  0
    1.1839   -5.9832    0.9757 O   0  0
    1.5300   -4.6089    0.6447 C   0  0  1  0  0  0
    0.3967   -3.9885   -0.1621 C   0  0  1  0  0  0
    0.7102   -2.5256   -0.4826 C   0  0
    0.8513   -1.7438    0.8196 C   0  0  1  0  0  0
    1.9270   -2.3558    1.6912 C   0  0  2  0  0  0
    1.8154   -3.8420    1.9365 C   0  0  2  0  0  0
    3.1837   -4.3474    2.4586 C   0  0
    0.7727   -4.1918    2.9979 C   0  0
    2.0386   -1.5246    2.9680 C   0  0
    2.6213   -0.1712    2.5609 C   0  0
    1.9761    0.3994    1.3133 C   0  0
    1.2072   -0.2943    0.5282 C   0  0
    0.5871    0.2829   -0.7180 C   0  0
    0.4693    1.8033   -0.6481 C   0  0  1  0  0  0
    1.8170    2.4096   -0.2824 C   0  0  2  0  0  0
    2.2984    1.8527    1.0656 C   0  0  1  0  0  0
    1.5975    2.6982    2.1491 C   0  0
    1.0321    3.9403    1.4368 C   0  0
    1.6713    3.9211    0.0317 C   0  0  2  0  0  0
    0.8090    4.6840   -0.9760 C   0  0  1  0  0  0
    0.8130    6.1755   -0.6273 C   0  0
    0.0114    6.9384   -1.6865 C   0  0
    0.6130    6.6628   -3.0670 C   0  0  1  0  0  0
    0.6073    5.2555   -3.3154 O   0  0
    1.3789    4.4942   -2.3841 C   0  0  2  0  0  0
    1.3253    3.1106   -2.7375 O   0  0
   -0.2185    7.3732   -4.1370 C   0  0  1  0  0  0
    0.3070    6.9976   -5.5239 C   0  0
   -1.6821    6.9451   -4.0130 C   0  0
   -0.1189    8.7873   -3.9567 O   0  0
    3.8135    2.0634    1.1702 C   0  0
    2.8657    2.1785   -1.3816 C   0  0
    0.0461    2.2409   -1.9488 O   0  0
   -0.5075   -1.7185    1.5191 C   0  0
    0.2538   -4.7206   -1.4150 O   0  0
   -0.9749   -4.7742   -1.9527 C   0  0
   -1.9008   -4.2300   -1.3993 O   0  0
   -1.1994   -5.5132   -3.2468 C   0  0
   -2.6491   -5.3232   -3.6977 C   0  0  2  0  0  0
   -2.9015   -6.1454   -4.9630 C   0  0
   -2.9017   -3.8432   -3.9923 C   0  0
   -4.3295   -3.6561   -4.4364 C   0  0
   -5.0692   -4.6086   -4.5098 O   0  0
   -4.7796   -2.4311   -4.7505 O   0  5
   -3.5313   -5.7600   -2.6618 O   0  0
    2.1256   -8.9072    0.2726 H   0  0
    0.5396   -8.6933   -0.4977 H   0  0
    0.6756   -8.5265    1.3161 H   0  0
    2.4380   -4.5684    0.0252 H   0  0
   -0.5315   -4.0395    0.4259 H   0  0
   -0.1070   -2.0964   -1.0809 H   0  0
    1.6513   -2.4672   -1.0491 H   0  0
    2.8720   -2.3086    1.1301 H   0  0
    3.9809   -4.1394    1.7298 H   0  0
    3.1445   -5.4247    2.6776 H   0  0
    3.4164   -3.8115    3.3906 H   0  0
    0.8080   -5.2729    3.1979 H   0  0
   -0.2271   -3.9237    2.6256 H   0  0
    0.9832   -3.6373    3.9243 H   0  0
    2.7134   -2.0216    3.6805 H   0  0
    1.0412   -1.3833    3.4099 H   0  0
    3.7011   -0.2841    2.3841 H   0  0
    2.4869    0.5400    3.3892 H   0  0
   -0.4150   -0.1492   -0.8559 H   0  0
    1.2040    0.0096   -1.5868 H   0  0
   -0.2518    2.1197    0.1200 H   0  0
    0.7770    2.1212    2.6006 H   0  0
    2.3260    3.0061    2.9136 H   0  0
    1.3312    4.8527    1.9735 H   0  0
   -0.0619    3.8618    1.3535 H   0  0
    2.6442    4.4316   -0.0222 H   0  0
   -0.2207    4.2987   -0.9392 H   0  0
    0.3512    6.3237    0.3600 H   0  0
    1.8479    6.5479   -0.6116 H   0  0
    0.0556    8.0172   -1.4760 H   0  0
   -1.0355    6.6013   -1.6686 H   0  0
    1.6469    7.0371   -3.0984 H   0  0
    2.4239    4.8370   -2.4070 H   0  0
    0.3854    2.8003   -2.7181 H   0  0
    0.2305    5.9092   -5.6638 H   0  0
    1.3593    7.3052   -5.6142 H   0  0
   -0.2904    7.5080   -6.2937 H   0  0
   -2.0610    7.2149   -3.0162 H   0  0
   -1.7599    5.8567   -4.1519 H   0  0
   -2.2805    7.4555   -4.7820 H   0  0
    0.8279    9.0653   -4.0370 H   0  0
    4.3244    1.4423    0.4197 H   0  0
    4.1563    1.7789    2.1760 H   0  0
    4.0499    3.1225    0.9898 H   0  0
    2.4986    2.6322   -2.3140 H   0  0
    2.9783    1.0948   -1.5331 H   0  0
    3.8298    2.6245   -1.0958 H   0  0
   -0.8363    1.8562   -2.1802 H   0  0
   -0.8339   -2.7448    1.7433 H   0  0
   -1.2518   -1.2255    0.8765 H   0  0
   -0.4168   -1.1565    2.4603 H   0  0
   -0.5214   -5.1177   -4.0175 H   0  0
   -1.0000   -6.5847   -3.0978 H   0  0
   -2.7204   -7.2097   -4.7522 H   0  0
   -2.2231   -5.8097   -5.7611 H   0  0
   -3.9436   -6.0093   -5.2878 H   0  0
   -2.2233   -3.5059   -4.7898 H   0  0
   -2.7208   -3.2520   -3.0825 H   0  0
   -3.3688   -5.2283   -1.8427 H   0  0
  1  2  1  0
  2  3  2  0
  2  4  1  0
  4  5  1  0
  5 10  1  0
  5  6  1  0
  6  7  1  0
  6 39  1  0
  7  8  1  0
  8 16  1  0
  8  9  1  0
  8 38  1  0
  9 10  1  0
  9 13  1  0
 10 11  1  0
 10 12  1  0
 13 14  1  0
 14 15  1  0
 15 20  1  0
 15 16  2  0
 16 17  1  0
 17 18  1  0
 18 19  1  0
 18 37  1  0
 19 23  1  0
 19 20  1  0
 19 36  1  0
 20 21  1  0
 20 35  1  0
 21 22  1  0
 22 23  1  0
 23 24  1  0
 24 29  1  0
 24 25  1  0
 25 26  1  0
 26 27  1  0
 27 28  1  0
 27 31  1  0
 28 29  1  0
 29 30  1  0
 31 32  1  0
 31 33  1  0
 31 34  1  0
 39 40  1  0
 40 41  2  0
 40 42  1  0
 42 43  1  0
 43 44  1  0
 43 45  1  0
 43 49  1  0
 45 46  1  0
 46 47  2  0
 46 48  1  0
  1 50  1  0
  1 51  1  0
  1 52  1  0
  5 53  1  0
  6 54  1  0
  7 55  1  0
  7 56  1  0
  9 57  1  0
 11 58  1  0
 11 59  1  0
 11 60  1  0
 12 61  1  0
 12 62  1  0
 12 63  1  0
 13 64  1  0
 13 65  1  0
 14 66  1  0
 14 67  1  0
 17 68  1  0
 17 69  1  0
 18 70  1  0
 21 71  1  0
 21 72  1  0
 22 73  1  0
 22 74  1  0
 23 75  1  0
 24 76  1  0
 25 77  1  0
 25 78  1  0
 26 79  1  0
 26 80  1  0
 27 81  1  0
 29 82  1  0
 30 83  1  0
 32 84  1  0
 32 85  1  0
 32 86  1  0
 33 87  1  0
 33 88  1  0
 33 89  1  0
 34 90  1  0
 35 91  1  0
 35 92  1  0
 35 93  1  0
 36 94  1  0
 36 95  1  0
 36 96  1  0
 37 97  1  0
 38 98  1  0
 38 99  1  0
 38100  1  0
 42101  1  0
 42102  1  0
 44103  1  0
 44104  1  0
 44105  1  0
 45106  1  0
 45107  1  0
 49108  1  0
M  CHG  1  48  -1
M  END
> <Name>
ZINC28540719

> <reference>
BDB50038593

> <quality>
0.697

> <status>
decoy

$$$$
ZINC03815487
  SciTegic06061311253D

 76 79  0  0  0  0            999 V2000
   -3.2811    3.7176    1.2871 C   0  0
   -2.4898    4.1049    0.0362 C   0  0  2  0  0  0
   -2.2306    5.6128    0.0431 C   0  0
   -3.2929    3.7312   -1.2113 C   0  0
   -1.2113    3.3897    0.0262 N   0  0
   -1.1930    2.0421    0.0188 C   0  0
   -2.2375    1.4200    0.0204 O   0  0
   -0.0168    1.3842    0.0097 N   0  0
    0.0021   -0.0041    0.0020 C   0  0
    1.2425   -0.6779   -0.0193 C   0  0
    1.2686   -2.0625   -0.0215 C   0  0
    0.0399   -2.7461   -0.0140 C   0  0
   -0.0254   -4.1469   -0.0209 C   0  0
   -2.3427   -4.0871    0.0030 C   0  0
   -2.3806   -2.7070    0.0103 C   0  0
   -1.1683   -1.9990    0.0021 C   0  0
   -1.1371   -0.6637    0.0094 N   0  0
   -3.5369   -4.7985    0.0111 N   0  0
   -4.8154   -4.0834    0.0277 C   0  0
   -5.9647   -5.0934    0.0337 C   0  0
   -7.2999   -4.3465    0.0510 C   0  0
   -8.4484   -6.0706   -1.2042 C   0  0
   -9.5721   -7.1080   -1.1322 C   0  0
  -10.8084   -6.4456   -0.8530 O   0  0
  -10.8000   -5.7017    0.3684 C   0  0
   -9.6888   -4.6501    0.3116 C   0  0
    2.5096    0.0921   -0.0333 C   0  0
    2.6929    1.1182   -0.9580 C   0  0
    3.8759    1.8392   -0.9650 C   0  0
    4.8815    1.5336   -0.0596 C   0  0
    4.7046    0.5088    0.8586 C   0  0
    3.5219   -0.2126    0.8744 C   0  0
    5.6922    0.2126    1.7439 O   0  0
    6.8848    0.9965    1.6716 C   0  0
    4.0535    2.8435   -1.8631 O   0  0
    5.2995    3.5416   -1.8178 C   0  0
   -1.1918   -4.8379   -0.0125 N   0  0
   -8.4002   -5.3344    0.0768 N   0  0
   -4.2415    4.2539    1.2954 H   0  0
   -2.7044    3.9857    2.1846 H   0  0
   -3.4678    2.6336    1.2827 H   0  0
   -1.6530    5.8825    0.9396 H   0  0
   -3.1900    6.1508    0.0503 H   0  0
   -1.6617    5.8919   -0.8560 H   0  0
   -4.2531    4.2679   -1.2049 H   0  0
   -3.4795    2.6472   -1.2174 H   0  0
   -2.7245    4.0094   -2.1111 H   0  0
   -0.3264    3.9168    0.0248 H   0  0
    0.8681    1.9113    0.0085 H   0  0
    2.2220   -2.6111   -0.0289 H   0  0
    0.9173   -4.7136   -0.0338 H   0  0
   -3.3420   -2.1726    0.0223 H   0  0
   -3.5229   -5.8284    0.0054 H   0  0
   -4.8737   -3.4571    0.9301 H   0  0
   -4.8924   -3.4468   -0.8661 H   0  0
   -5.9073   -5.7198   -0.8687 H   0  0
   -5.8900   -5.7302    0.9275 H   0  0
   -7.3549   -3.7113    0.9474 H   0  0
   -7.3862   -3.7237   -0.8516 H   0  0
   -8.6473   -5.3668   -2.0258 H   0  0
   -7.4877   -6.5790   -1.3730 H   0  0
   -9.6476   -7.6350   -2.0948 H   0  0
   -9.3549   -7.8312   -0.3323 H   0  0
  -11.7710   -5.2022    0.5011 H   0  0
  -10.6175   -6.3823    1.2130 H   0  0
   -9.8879   -3.9476   -0.5111 H   0  0
   -9.6472   -4.1045    1.2659 H   0  0
    1.8992    1.3555   -1.6817 H   0  0
    5.8213    2.1051   -0.0697 H   0  0
    3.3822   -1.0250    1.6027 H   0  0
    6.5752    2.0436    1.8046 H   0  0
    7.2664    0.8852    0.6459 H   0  0
    7.6359    0.6982    2.4179 H   0  0
    6.0841    2.7831   -1.9561 H   0  0
    5.3930    3.9416   -0.7974 H   0  0
    5.3685    4.3383   -2.5731 H   0  0
  1  2  1  0
  2  3  1  0
  2  4  1  0
  2  5  1  0
  5  6  1  0
  6  7  2  0
  6  8  1  0
  8  9  1  0
  9 17  1  0
  9 10  2  0
 10 11  1  0
 10 27  1  0
 11 12  2  0
 12 16  1  0
 12 13  1  0
 13 37  2  0
 14 15  2  0
 14 18  1  0
 14 37  1  0
 15 16  1  0
 16 17  2  0
 18 19  1  0
 19 20  1  0
 20 21  1  0
 21 38  1  0
 22 23  1  0
 22 38  1  0
 23 24  1  0
 24 25  1  0
 25 26  1  0
 26 38  1  0
 27 32  2  0
 27 28  1  0
 28 29  2  0
 29 30  1  0
 29 35  1  0
 30 31  2  0
 31 32  1  0
 31 33  1  0
 33 34  1  0
 35 36  1  0
  1 39  1  0
  1 40  1  0
  1 41  1  0
  3 42  1  0
  3 43  1  0
  3 44  1  0
  4 45  1  0
  4 46  1  0
  4 47  1  0
  5 48  1  0
  8 49  1  0
 11 50  1  0
 13 51  1  0
 15 52  1  0
 18 53  1  0
 19 54  1  0
 19 55  1  0
 20 56  1  0
 20 57  1  0
 21 58  1  0
 21 59  1  0
 22 60  1  0
 22 61  1  0
 23 62  1  0
 23 63  1  0
 25 64  1  0
 25 65  1  0
 26 66  1  0
 26 67  1  0
 28 68  1  0
 30 69  1  0
 32 70  1  0
 34 71  1  0
 34 72  1  0
 34 73  1  0
 36 74  1  0
 36 75  1  0
 36 76  1  0
M  END
> <Name>
ZINC03815487

> <reference>
BDB50038593

> <quality>
0.694

> <status>
decoy

$$$$
ZINC05707072
  SciTegic06061311253D

 66 68  0  0  1  0            999 V2000
   -5.0889   -5.9063   -2.4060 C   0  0
   -3.8435   -5.0205   -2.4780 C   0  0  2  0  0  0
   -4.2327   -3.6347   -2.9966 C   0  0  1  0  0  0
   -3.0017   -2.7707   -3.0937 C   0  0
   -2.6685   -2.3080   -4.1641 O   0  0
   -2.2711   -2.5123   -1.9910 N   0  0
   -1.0745   -1.6725   -2.0854 C   0  0
   -0.4352   -1.5382   -0.7019 C   0  0
    0.7957   -0.6742   -0.7989 C   0  0
    0.8974    0.6252   -0.6699 N   0  0
    2.0642    1.2432   -0.7847 C   0  0
    3.1712    0.4762   -1.0448 C   0  0
    2.4357   -1.1509   -1.1106 S   0  0
    2.1691    2.7099   -0.6380 C   0  0
    3.2379    3.4820   -0.7203 N   0  0
    3.1200    4.7927   -0.5566 C   0  0
    1.8816    5.3255   -0.3031 C   0  0
    0.8831    3.9047   -0.3106 S   0  0
    4.3034    5.6649   -0.6453 C   0  0
    4.1863    6.8660   -0.4934 O   0  0
    5.5160    5.1321   -0.8947 N   0  0
    6.6931    5.9998   -0.9830 C   0  0
    7.9324    5.1502   -1.2718 C   0  0
    9.1617    6.0563   -1.3640 C   0  0
   10.6310    5.0491   -1.7065 S   0  0
   11.9825    6.2566   -1.7843 C   0  0
   -4.8464   -3.7636   -4.3250 N   0  0
   -6.6067   -3.8143   -4.2063 S   0  0
   -7.0426   -2.2028   -3.6428 C   0  0
   -7.2453   -1.9698   -2.2876 C   0  0
   -7.5811   -0.7044   -1.8491 C   0  0
   -7.7270    0.3282   -2.7579 C   0  0
   -7.5317    0.0988   -4.1074 C   0  0
   -7.1900   -1.1630   -4.5527 C   0  0
   -6.9816   -1.4077   -5.9975 N   0  0
   -7.0449   -0.4825   -6.7871 O   0  0
   -6.7468   -2.5342   -6.3967 O   0  0
   -2.8900   -5.6102   -3.3640 O   0  0
   -5.5308   -6.0017   -3.4088 H   0  0
   -5.8234   -5.4533   -1.7239 H   0  0
   -4.8098   -6.9029   -2.0332 H   0  0
   -3.4023   -4.9260   -1.4748 H   0  0
   -4.9514   -3.1725   -2.3039 H   0  0
   -2.5541   -2.9053   -1.0819 H   0  0
   -0.3555   -2.1349   -2.7776 H   0  0
   -1.3532   -0.6758   -2.4580 H   0  0
   -1.1536   -1.0755   -0.0092 H   0  0
   -0.1547   -2.5340   -0.3281 H   0  0
    4.2205    0.7788   -1.1764 H   0  0
    1.5965    6.3751   -0.1386 H   0  0
    5.6151    4.1150   -1.0232 H   0  0
    6.5515    6.7286   -1.7947 H   0  0
    6.8290    6.5333   -0.0307 H   0  0
    8.0748    4.4214   -0.4602 H   0  0
    7.7988    4.6167   -2.2245 H   0  0
    9.0202    6.7851   -2.1757 H   0  0
    9.2977    6.5897   -0.4117 H   0  0
   12.1280    6.7787   -0.8271 H   0  0
   11.8490    6.9764   -2.6053 H   0  0
   12.9066    5.6970   -1.9915 H   0  0
   -4.5104   -4.6286   -4.7719 H   0  0
   -7.1383   -2.7925   -1.5653 H   0  0
   -7.7328   -0.5172   -0.7758 H   0  0
   -7.9991    1.3343   -2.4061 H   0  0
   -7.6486    0.9224   -4.8272 H   0  0
   -3.2861   -5.6955   -4.2673 H   0  0
  1  2  1  0
  2  3  1  0
  2 38  1  0
  3  4  1  0
  3 27  1  0
  4  5  2  0
  4  6  1  0
  6  7  1  0
  7  8  1  0
  8  9  1  0
  9 13  1  0
  9 10  2  0
 10 11  1  0
 11 12  2  0
 11 14  1  0
 12 13  1  0
 14 18  1  0
 14 15  2  0
 15 16  1  0
 16 17  2  0
 16 19  1  0
 17 18  1  0
 19 20  2  0
 19 21  1  0
 21 22  1  0
 22 23  1  0
 23 24  1  0
 24 25  1  0
 25 26  1  0
 27 28  1  0
 28 29  1  0
 29 34  2  0
 29 30  1  0
 30 31  2  0
 31 32  1  0
 32 33  2  0
 33 34  1  0
 34 35  1  0
 35 36  2  0
 35 37  2  0
  1 39  1  0
  1 40  1  0
  1 41  1  0
  2 42  1  0
  3 43  1  0
  6 44  1  0
  7 45  1  0
  7 46  1  0
  8 47  1  0
  8 48  1  0
 12 49  1  0
 17 50  1  0
 21 51  1  0
 22 52  1  0
 22 53  1  0
 23 54  1  0
 23 55  1  0
 24 56  1  0
 24 57  1  0
 26 58  1  0
 26 59  1  0
 26 60  1  0
 27 61  1  0
 30 62  1  0
 31 63  1  0
 32 64  1  0
 33 65  1  0
 38 66  1  0
M  END
> <Name>
ZINC05707072

> <reference>
BDB50038593

> <quality>
0.692

> <status>
decoy

$$$$
ZINC29172143
  SciTegic06061311253D

 65 67  0  0  0  0            999 V2000
   -2.1749    2.9109   -3.3213 C   0  0
   -2.4444    2.8155   -1.8804 N   0  3
   -3.8518    2.4775   -1.6293 C   0  0
   -1.5475    1.8440   -1.2402 C   0  0
   -1.6798    1.9490    0.2573 C   0  0
   -0.8625    2.8129    0.9630 C   0  0
   -0.9831    2.9178    2.3362 C   0  0
   -1.9168    2.1481    3.0108 C   0  0
   -2.7367    1.2733    2.3012 C   0  0
   -2.6137    1.1776    0.9224 C   0  0
   -3.6825    0.4931    2.9774 N   0  0
   -4.1496   -0.6386    2.4138 C   0  0
   -3.6765   -1.0365    1.3653 O   0  0
   -5.2259   -1.3893    3.0628 C   0  0
   -5.6931   -2.5214    2.4990 C   0  0
   -6.7754   -3.2762    3.1515 C   0  0
   -7.3176   -2.8254    4.3591 C   0  0
   -8.3354   -3.5346    4.9611 C   0  0
   -8.8124   -4.6963    4.3792 C   0  0
   -8.2767   -5.1522    3.1872 C   0  0
   -7.2627   -4.4508    2.5699 C   0  0
  -10.1079   -5.5998    5.1602 S   0  0
  -10.8762   -4.6560    5.8939 O   0  0
  -10.6784   -6.4360    4.1629 O   0  0
   -9.4030   -6.6035    6.2729 N   0  0
   -8.7455   -6.0642    7.3842 C   0  0
   -7.3579   -6.0600    7.4360 C   0  0
   -6.7097   -5.5223    8.5307 C   0  0
   -7.4445   -4.9973    9.5834 C   0  0
   -8.8307   -5.0058    9.5348 C   0  0
   -9.4804   -5.5379    8.4384 C   0  0
   -6.8055   -4.4735   10.6636 O   0  0
   -5.3768   -4.4976   10.6469 C   0  0
   -2.0324    2.2458    4.3621 O   0  0
   -1.1589    3.1633    5.0233 C   0  0
   -2.8220    3.6885   -3.7532 H   0  0
   -2.4101    1.9447   -3.7916 H   0  0
   -1.1185    3.1643   -3.4941 H   0  0
   -2.2611    3.7388   -1.4624 H   0  0
   -4.0771    1.5139   -2.1096 H   0  0
   -4.4890    3.2577   -2.0712 H   0  0
   -4.0388    2.4095   -0.5474 H   0  0
   -0.5081    2.0556   -1.5314 H   0  0
   -1.8186    0.8274   -1.5613 H   0  0
   -0.1144    3.4183    0.4303 H   0  0
   -0.3375    3.6126    2.8934 H   0  0
   -3.2594    0.4879    0.3590 H   0  0
   -4.0213    0.7840    3.9056 H   0  0
   -5.6534   -1.0297    4.0104 H   0  0
   -5.2655   -2.8810    1.5514 H   0  0
   -6.9331   -1.9074    4.8276 H   0  0
   -8.7694   -3.1762    5.9062 H   0  0
   -8.6609   -6.0765    2.7311 H   0  0
   -6.8382   -4.8143    1.6224 H   0  0
   -9.4485   -7.6248    6.1470 H   0  0
   -6.7751   -6.4848    6.6054 H   0  0
   -5.6104   -5.5104    8.5677 H   0  0
   -9.4127   -4.5886   10.3698 H   0  0
  -10.5797   -5.5448    8.4002 H   0  0
   -5.0689   -3.9558    9.7405 H   0  0
   -5.0867   -5.5516   10.5248 H   0  0
   -4.9332   -4.0576   11.5522 H   0  0
   -1.3419    4.1476    4.5676 H   0  0
   -0.1348    2.8567    4.7642 H   0  0
   -1.3115    3.1864    6.1124 H   0  0
  1  2  1  0
  2  3  1  0
  2  4  1  0
  4  5  1  0
  5 10  2  0
  5  6  1  0
  6  7  2  0
  7  8  1  0
  8  9  2  0
  8 34  1  0
  9 10  1  0
  9 11  1  0
 11 12  1  0
 12 13  2  0
 12 14  1  0
 14 15  2  0
 15 16  1  0
 16 21  2  0
 16 17  1  0
 17 18  2  0
 18 19  1  0
 19 20  2  0
 19 22  1  0
 20 21  1  0
 22 23  2  0
 22 24  2  0
 22 25  1  0
 25 26  1  0
 26 31  2  0
 26 27  1  0
 27 28  2  0
 28 29  1  0
 29 30  2  0
 29 32  1  0
 30 31  1  0
 32 33  1  0
 34 35  1  0
  1 36  1  0
  1 37  1  0
  1 38  1  0
  2 39  1  0
  3 40  1  0
  3 41  1  0
  3 42  1  0
  4 43  1  0
  4 44  1  0
  6 45  1  0
  7 46  1  0
 10 47  1  0
 11 48  1  0
 14 49  1  0
 15 50  1  0
 17 51  1  0
 18 52  1  0
 20 53  1  0
 21 54  1  0
 25 55  1  0
 27 56  1  0
 28 57  1  0
 30 58  1  0
 31 59  1  0
 33 60  1  0
 33 61  1  0
 33 62  1  0
 35 63  1  0
 35 64  1  0
 35 65  1  0
M  CHG  1   2   1
M  END
> <Name>
ZINC29172143

> <reference>
BDB50038593

> <quality>
0.683

> <status>
decoy

$$$$
ZINC20616832
  SciTegic06061311253D

 76 79  0  0  0  0            999 V2000
   -5.1563    0.6343  -14.3365 C   0  0
   -6.3154    0.3488  -13.3795 C   0  0
   -5.8791    0.5871  -11.9972 N   0  3
   -7.0202    0.5547  -11.0718 C   0  0
   -6.5365    0.8851   -9.6578 C   0  0
   -5.5082   -0.0846   -9.2555 N   0  0
   -4.3670   -0.0521  -10.1809 C   0  0
   -4.8508   -0.3826  -11.5949 C   0  0
   -5.0719    0.1537   -7.8732 C   0  0
   -4.1961   -1.0109   -7.4068 C   0  0
   -3.7611   -0.7733   -6.0283 N   0  0
   -2.9748   -1.6733   -5.4051 C   0  0
   -2.6268   -2.6822   -5.9869 O   0  0
   -2.5358   -1.4334   -4.0139 C   0  0
   -1.7215   -2.3635   -3.3657 C   0  0
   -1.3150   -2.1334   -2.0676 C   0  0
   -1.7126   -0.9838   -1.4084 C   0  0
   -2.5240   -0.0603   -2.0434 C   0  0
   -2.9333   -0.2758   -3.3431 C   0  0
   -1.2650   -0.7393    0.0097 C   0  0
    0.0021   -0.0041    0.0020 N   0  0
    1.1652   -0.6901   -0.0128 C   0  0
    1.1714   -1.9064   -0.0190 O   0  0
    2.4250    0.0704   -0.0208 C   0  0
    3.6655   -0.5685   -0.0357 C   0  0
    4.8202    0.1874   -0.0422 C   0  0
    4.7483    1.5824   -0.0341 C   0  0
    3.5196    2.2227   -0.0193 C   0  0
    2.3542    1.4753   -0.0126 C   0  0
    1.1040    2.0810    0.0027 N   0  0
   -0.0161    1.3379    0.0094 C   0  0
   -1.0913    1.9056    0.0175 O   0  0
    5.8908    2.3162   -0.0402 O   0  0
    5.7486    3.7381   -0.0307 C   0  0
    7.1331    4.3892   -0.0395 C   0  0
    6.0332   -0.4285   -0.0563 O   0  0
    6.0352   -1.8575   -0.0640 C   0  0
    7.4784   -2.3654   -0.0795 C   0  0
   -4.3119   -0.0297  -14.0997 H   0  0
   -4.8396    1.6821  -14.2282 H   0  0
   -5.4823    0.4560  -15.3718 H   0  0
   -7.1592    1.0134  -13.6168 H   0  0
   -6.6321   -0.6990  -13.4878 H   0  0
   -5.4624    1.5281  -11.9554 H   0  0
   -7.7687    1.2971  -11.3858 H   0  0
   -7.4718   -0.4483  -11.0793 H   0  0
   -7.3832    0.8327   -8.9576 H   0  0
   -6.1098    1.8989   -9.6434 H   0  0
   -3.6177   -0.7940   -9.8675 H   0  0
   -3.9164    0.9514  -10.1730 H   0  0
   -4.0027   -0.3309  -12.2935 H   0  0
   -5.2770   -1.3966  -11.6086 H   0  0
   -4.4934    1.0882   -7.8271 H   0  0
   -5.9521    0.2347   -7.2185 H   0  0
   -4.7741   -1.9457   -7.4524 H   0  0
   -3.3146   -1.0926   -8.0597 H   0  0
   -4.0561    0.0816   -5.5353 H   0  0
   -1.4046   -3.2779   -3.8887 H   0  0
   -0.6733   -2.8656   -1.5555 H   0  0
   -2.8434    0.8476   -1.5108 H   0  0
   -3.5716    0.4631   -3.8497 H   0  0
   -1.1261   -1.7024    0.5228 H   0  0
   -2.0277   -0.1488    0.5384 H   0  0
    3.7226   -1.6670   -0.0422 H   0  0
    3.4702    3.3216   -0.0129 H   0  0
    1.0348    3.1087    0.0090 H   0  0
    5.2046    4.0473    0.8740 H   0  0
    5.1885    4.0567   -0.9222 H   0  0
    7.6781    4.0819   -0.9442 H   0  0
    7.6944    4.0716    0.8516 H   0  0
    7.0243    5.4838   -0.0322 H   0  0
    5.5097   -2.2212   -0.9593 H   0  0
    5.5257   -2.2299    0.8369 H   0  0
    8.0052   -2.0035    0.8158 H   0  0
    7.9893   -1.9939   -0.9800 H   0  0
    7.4807   -3.4654   -0.0854 H   0  0
  1  2  1  0
  2  3  1  0
  3  8  1  0
  3  4  1  0
  4  5  1  0
  5  6  1  0
  6  7  1  0
  6  9  1  0
  7  8  1  0
  9 10  1  0
 10 11  1  0
 11 12  1  0
 12 13  2  0
 12 14  1  0
 14 19  2  0
 14 15  1  0
 15 16  2  0
 16 17  1  0
 17 18  2  0
 17 20  1  0
 18 19  1  0
 20 21  1  0
 21 31  1  0
 21 22  1  0
 22 23  2  0
 22 24  1  0
 24 29  2  0
 24 25  1  0
 25 26  2  0
 26 27  1  0
 26 36  1  0
 27 28  2  0
 27 33  1  0
 28 29  1  0
 29 30  1  0
 30 31  1  0
 31 32  2  0
 33 34  1  0
 34 35  1  0
 36 37  1  0
 37 38  1  0
  1 39  1  0
  1 40  1  0
  1 41  1  0
  2 42  1  0
  2 43  1  0
  3 44  1  0
  4 45  1  0
  4 46  1  0
  5 47  1  0
  5 48  1  0
  7 49  1  0
  7 50  1  0
  8 51  1  0
  8 52  1  0
  9 53  1  0
  9 54  1  0
 10 55  1  0
 10 56  1  0
 11 57  1  0
 15 58  1  0
 16 59  1  0
 18 60  1  0
 19 61  1  0
 20 62  1  0
 20 63  1  0
 25 64  1  0
 28 65  1  0
 30 66  1  0
 34 67  1  0
 34 68  1  0
 35 69  1  0
 35 70  1  0
 35 71  1  0
 37 72  1  0
 37 73  1  0
 38 74  1  0
 38 75  1  0
 38 76  1  0
M  CHG  1   3   1
M  END
> <Name>
ZINC20616832

> <reference>
BDB50038593

> <quality>
0.681

> <status>
decoy

$$$$
ZINC18016935
  SciTegic06061311253D

 57 59  0  0  1  0            999 V2000
   -7.4146    2.0777   -3.7171 C   0  0
   -7.0804   -0.1292   -4.6554 C   0  0
   -6.1176    1.8075   -5.7438 C   0  0  2  0  0  0
   -5.6214    3.2358   -5.5099 C   0  0
   -4.5593    3.2247   -4.5009 N   0  0
   -3.9051    4.3636   -4.1985 C   0  0
   -4.1965    5.4003   -4.7631 O   0  0
   -2.8357    4.3523   -3.1824 C   0  0
   -2.1562    5.5328   -2.8676 C   0  0
   -1.1594    5.5192   -1.9191 C   0  0
   -0.8273    4.3315   -1.2732 C   0  0
   -1.4982    3.1531   -1.5885 C   0  0
   -2.4999    3.1613   -2.5321 C   0  0
    0.1804    4.3210   -0.3152 N   0  5
    0.2376    5.5067    0.8395 S   0  0
    0.1020    6.7455    0.1566 O   0  0
    1.3530    5.2122    1.6691 O   0  0
   -1.1988    5.3255    1.8438 C   0  0
   -1.1961    4.4328    2.8995 C   0  0
   -2.3229    4.2903    3.6870 C   0  0
   -3.4529    5.0405    3.4190 C   0  0
   -3.4574    5.9291    2.3604 C   0  0
   -2.3284    6.0755    1.5759 C   0  0
   -4.6693    6.7279    2.0698 N   0  0
   -5.6624    6.6021    2.7636 O   0  0
   -4.6733    7.5110    1.1370 O   0  0
   -7.3156    1.8353   -6.6576 C   0  0
   -7.3389    1.0433   -7.7907 C   0  0
   -8.4370    1.0677   -8.6298 C   0  0
   -9.5132    1.8841   -8.3370 C   0  0
   -9.4910    2.6776   -7.2028 C   0  0
   -8.3927    2.6481   -6.3599 C   0  0
  -10.5425    3.4757   -6.9154 F   0  0
   -6.4719    1.2009   -4.4433 N   0  3
   -7.6554    1.6255   -2.7437 H   0  0
   -8.3372    2.1866   -4.3061 H   0  0
   -6.9578    3.0662   -3.5615 H   0  0
   -8.0035   -0.0172   -5.2431 H   0  0
   -7.3217   -0.5783   -3.6807 H   0  0
   -6.3757   -0.7782   -5.1959 H   0  0
   -5.3281    1.2056   -6.2176 H   0  0
   -6.4546    3.8615   -5.1573 H   0  0
   -5.2276    3.6461   -6.4515 H   0  0
   -4.3125    2.3465   -4.0226 H   0  0
   -2.4181    6.4716   -3.3776 H   0  0
   -0.6244    6.4477   -1.6710 H   0  0
   -1.2273    2.2145   -1.0829 H   0  0
   -3.0357    2.2317   -2.7744 H   0  0
   -0.2971    3.8359    3.1127 H   0  0
   -2.3207    3.5800    4.5270 H   0  0
   -4.3483    4.9302    4.0483 H   0  0
   -2.3292    6.7889    0.7386 H   0  0
   -6.4829    0.3933   -8.0246 H   0  0
   -8.4544    0.4371   -9.5310 H   0  0
  -10.3870    1.9033   -9.0049 H   0  0
   -8.3777    3.2715   -5.4537 H   0  0
   -5.6160    1.0914   -3.8809 H   0  0
  1 34  1  0
  2 34  1  0
  3  4  1  0
  3 27  1  0
  3 34  1  0
  4  5  1  0
  5  6  1  0
  6  7  2  0
  6  8  1  0
  8 13  2  0
  8  9  1  0
  9 10  2  0
 10 11  1  0
 11 12  2  0
 11 14  1  0
 12 13  1  0
 14 15  1  0
 15 16  2  0
 15 17  2  0
 15 18  1  0
 18 23  2  0
 18 19  1  0
 19 20  2  0
 20 21  1  0
 21 22  2  0
 22 23  1  0
 22 24  1  0
 24 25  2  0
 24 26  2  0
 27 32  2  0
 27 28  1  0
 28 29  2  0
 29 30  1  0
 30 31  2  0
 31 32  1  0
 31 33  1  0
  1 35  1  0
  1 36  1  0
  1 37  1  0
  2 38  1  0
  2 39  1  0
  2 40  1  0
  3 41  1  0
  4 42  1  0
  4 43  1  0
  5 44  1  0
  9 45  1  0
 10 46  1  0
 12 47  1  0
 13 48  1  0
 19 49  1  0
 20 50  1  0
 21 51  1  0
 23 52  1  0
 28 53  1  0
 29 54  1  0
 30 55  1  0
 32 56  1  0
 34 57  1  0
M  CHG  2  14  -1  34   1
M  END
> <Name>
ZINC18016935

> <reference>
BDB50038593

> <quality>
0.677

> <status>
decoy

$$$$
ZINC04707607
  SciTegic06061311253D

 67 70  0  0  0  0            999 V2000
   -3.5331    6.2378    0.0186 C   0  0
   -2.3317    5.4640    0.0057 O   0  0
   -1.1584    6.1474   -0.0092 C   0  0
   -1.1606    7.5289   -0.0118 C   0  0
    0.0513    8.2260   -0.0277 C   0  0
    1.2636    7.5251   -0.0413 C   0  0
    1.2691    6.1609   -0.0329 C   0  0
    0.0621    5.4524   -0.0225 C   0  0
    0.0712    4.0892   -0.0195 N   0  0
    1.1925    3.4516   -0.0316 N   0  0
    1.2015    2.0897   -0.0286 C   0  0
   -0.0051    1.3792   -0.0124 C   0  0
    0.0090    0.0001   -0.0099 C   0  0
    1.2243   -0.6889   -0.0235 C   0  0
    2.4237    0.0099   -0.0397 C   0  0
    2.4206    1.3933   -0.0419 C   0  0
    3.5943    2.0764   -0.0568 O   0  0
    4.7953    1.3022   -0.0697 C   0  0
    1.2326   -2.0853   -0.0204 N   0  0
    2.3011   -2.7518    0.4595 C   0  0
    3.2143   -2.1414    0.9815 O   0  0
    2.3630   -4.2214    0.3517 C   0  0
    1.3114   -4.9250   -0.2431 C   0  0
    1.3748   -6.2957   -0.3474 C   0  0
    2.4791   -6.9828    0.1493 C   0  0
    3.5255   -6.2855    0.7468 C   0  0
    3.4708   -4.9143    0.8490 C   0  0
    2.5372   -8.3684    0.0480 N   0  0
   -1.1628   -0.6907    0.0064 O   0  0
   -2.3682    0.0767    0.0202 C   0  0
    0.0528    9.5907   -0.0303 N   0  0
    1.1705   10.2345   -0.0449 N   0  0
    1.1720   11.6007   -0.0475 C   0  0
   -0.0359   12.3044   -0.0403 C   0  0
   -0.0263   13.6834   -0.0377 C   0  0
    1.1750   14.3705   -0.0534 C   0  0
    2.3748   13.6807   -0.0664 C   0  0
    2.3813   12.3018   -0.0633 C   0  0
    1.1769   16.1325   -0.0563 S   0  0
   -0.0615   16.5409    0.5085 O   0  0
    2.4290   16.5382    0.4792 O   0  0
    1.1603   16.5802   -1.5109 O   0  5
   -3.4955    6.8822   -0.8721 H   0  0
   -3.4746    6.8851    0.9061 H   0  0
   -4.4399    5.6153    0.0303 H   0  0
   -2.1132    8.0789   -0.0014 H   0  0
    2.2151    8.0767   -0.0588 H   0  0
    2.2248    5.6163   -0.0343 H   0  0
   -0.9628    1.9202   -0.0017 H   0  0
    3.3779   -0.5372   -0.0508 H   0  0
    4.7366    0.6550   -0.9572 H   0  0
    4.7575    0.6578    0.8210 H   0  0
    5.7024    1.9244   -0.0814 H   0  0
    0.4220   -2.6059   -0.3849 H   0  0
    0.4343   -4.3835   -0.6273 H   0  0
    0.5521   -6.8491   -0.8237 H   0  0
    4.3970   -6.8312    1.1376 H   0  0
    4.2978   -4.3640    1.3215 H   0  0
    1.7642   -8.8861   -0.3940 H   0  0
    3.3539   -8.8773    0.4153 H   0  0
   -2.3348    0.7210   -0.8707 H   0  0
   -2.3122    0.7246    0.9074 H   0  0
   -3.2718   -0.5505    0.0330 H   0  0
   -0.9915   11.7596   -0.0367 H   0  0
   -0.9758   14.2386   -0.0231 H   0  0
    3.3255   14.2338   -0.0792 H   0  0
    3.3356   11.7549   -0.0732 H   0  0
  1  2  1  0
  2  3  1  0
  3  8  2  0
  3  4  1  0
  4  5  2  0
  5  6  1  0
  5 31  1  0
  6  7  2  0
  7  8  1  0
  8  9  1  0
  9 10  2  0
 10 11  1  0
 11 16  2  0
 11 12  1  0
 12 13  2  0
 13 14  1  0
 13 29  1  0
 14 15  2  0
 14 19  1  0
 15 16  1  0
 16 17  1  0
 17 18  1  0
 19 20  1  0
 20 21  2  0
 20 22  1  0
 22 27  2  0
 22 23  1  0
 23 24  2  0
 24 25  1  0
 25 26  2  0
 25 28  1  0
 26 27  1  0
 29 30  1  0
 31 32  2  0
 32 33  1  0
 33 38  2  0
 33 34  1  0
 34 35  2  0
 35 36  1  0
 36 37  2  0
 36 39  1  0
 37 38  1  0
 39 40  2  0
 39 41  2  0
 39 42  1  0
  1 43  1  0
  1 44  1  0
  1 45  1  0
  4 46  1  0
  6 47  1  0
  7 48  1  0
 12 49  1  0
 15 50  1  0
 18 51  1  0
 18 52  1  0
 18 53  1  0
 19 54  1  0
 23 55  1  0
 24 56  1  0
 26 57  1  0
 27 58  1  0
 28 59  1  0
 28 60  1  0
 30 61  1  0
 30 62  1  0
 30 63  1  0
 34 64  1  0
 35 65  1  0
 37 66  1  0
 38 67  1  0
M  CHG  1  42  -1
M  END
> <Name>
ZINC04707607

> <reference>
BDB50038593

> <quality>
0.677

> <status>
decoy

$$$$
ZINC04887538
  SciTegic06061311253D

 66 68  0  0  1  0            999 V2000
   -0.7348    2.0192    1.2692 C   0  0
   -0.0187    1.5258    0.0104 C   0  0
    0.0021   -0.0041    0.0020 C   0  0
    0.7074   -0.4901   -1.2379 C   0  0
    1.1483    0.3055   -2.0332 O   0  0
    0.8459   -1.8068   -1.4587 O   0  0
    1.5361   -2.2025   -2.6733 C   0  0
    1.5962   -3.7293   -2.7515 C   0  0  1  0  0  0
    2.2487   -4.1744   -4.0845 C   0  0  1  0  0  0
    2.7885   -5.5782   -3.6930 C   0  0  1  0  0  0
    3.1800   -5.3793   -2.2130 C   0  0  1  0  0  0
    2.4521   -4.2480   -1.7210 O   0  0
    2.8256   -6.5725   -1.4405 N   0  0
    1.6751   -6.7628   -0.7331 C   0  0
    1.6967   -7.9393   -0.1745 N   0  0
    2.8599   -8.5567   -0.4847 C   0  0
    3.5869   -7.6911   -1.2929 C   0  0
    4.8190   -8.0877   -1.7488 N   0  0
    5.3196   -9.3067   -1.4136 C   0  0
    4.6641  -10.1547   -0.6518 N   0  0
    3.4511   -9.8576   -0.1581 C   0  0
    2.6132  -10.9744    0.8326 S   0  0
    6.5532   -9.6655   -1.8886 N   0  0
    1.7488   -6.5836   -3.8219 O   0  0
    2.1472   -7.8512   -4.0127 C   0  0
    3.3256   -8.1119   -4.0702 O   0  0
    1.1248   -8.9490   -4.1553 C   0  0
    1.8382  -10.2867   -4.3616 C   0  0
    0.8001  -11.4013   -4.5064 C   0  0
    1.2612   -4.2682   -5.1448 O   0  0
    1.0659   -3.1720   -5.8945 C   0  0
    1.6993   -2.1674   -5.6721 O   0  0
    0.0569   -3.1944   -7.0136 C   0  0
    0.0308   -1.8293   -7.7041 C   0  0
   -0.9937   -1.8520   -8.8403 C   0  0
   -0.2033    1.6556    2.1610 H   0  0
   -1.7670    1.6392    1.2779 H   0  0
   -0.7501    3.1191    1.2759 H   0  0
   -0.5510    1.8896   -0.8808 H   0  0
    1.0135    1.9058    0.0016 H   0  0
   -1.0295   -0.3860    0.0096 H   0  0
    0.5347   -0.3686    0.8928 H   0  0
    0.9938   -1.8122   -3.5471 H   0  0
    2.5582   -1.7961   -2.6646 H   0  0
    0.5644   -4.0982   -2.6546 H   0  0
    3.0129   -3.4845   -4.4717 H   0  0
    3.6180   -5.9262   -4.3261 H   0  0
    4.2633   -5.2136   -2.1181 H   0  0
    0.8550   -6.0347   -0.6475 H   0  0
    5.3688   -7.4571   -2.3496 H   0  0
    7.0953   -9.0275   -2.4887 H   0  0
    6.9418  -10.5866   -1.6407 H   0  0
    0.5102   -8.9985   -3.2443 H   0  0
    0.4800   -8.7408   -5.0218 H   0  0
    2.4527  -10.2380   -5.2727 H   0  0
    2.4827  -10.4972   -3.4954 H   0  0
    0.1553  -11.1930   -5.3729 H   0  0
    0.1848  -11.4513   -3.5959 H   0  0
    1.3123  -12.3634   -4.6548 H   0  0
    0.3358   -3.9686   -7.7435 H   0  0
   -0.9400   -3.4172   -6.6056 H   0  0
    1.0268   -1.6053   -8.1139 H   0  0
   -0.2484   -1.0546   -6.9748 H   0  0
   -1.9906   -2.0747   -8.4321 H   0  0
   -0.7158   -2.6262   -9.5706 H   0  0
   -1.0130   -0.8708   -9.3372 H   0  0
  1  2  1  0
  2  3  1  0
  3  4  1  0
  4  5  2  0
  4  6  1  0
  6  7  1  0
  7  8  1  0
  8 12  1  0
  8  9  1  0
  9 10  1  0
  9 30  1  0
 10 11  1  0
 10 24  1  0
 11 12  1  0
 11 13  1  0
 13 17  1  0
 13 14  1  0
 14 15  2  0
 15 16  1  0
 16 21  1  0
 16 17  2  0
 17 18  1  0
 18 19  1  0
 19 20  2  0
 19 23  1  0
 20 21  1  0
 21 22  2  0
 24 25  1  0
 25 26  2  0
 25 27  1  0
 27 28  1  0
 28 29  1  0
 30 31  1  0
 31 32  2  0
 31 33  1  0
 33 34  1  0
 34 35  1  0
  1 36  1  0
  1 37  1  0
  1 38  1  0
  2 39  1  0
  2 40  1  0
  3 41  1  0
  3 42  1  0
  7 43  1  0
  7 44  1  0
  8 45  1  0
  9 46  1  0
 10 47  1  0
 11 48  1  0
 14 49  1  0
 18 50  1  0
 23 51  1  0
 23 52  1  0
 27 53  1  0
 27 54  1  0
 28 55  1  0
 28 56  1  0
 29 57  1  0
 29 58  1  0
 29 59  1  0
 33 60  1  0
 33 61  1  0
 34 62  1  0
 34 63  1  0
 35 64  1  0
 35 65  1  0
 35 66  1  0
M  END
> <Name>
ZINC04887538

> <reference>
BDB50038593

> <quality>
0.666

> <status>
decoy

$$$$
ZINC27559325
  SciTegic06061311253D

 66 67  0  0  0  0            999 V2000
    1.4178    1.9774   -0.0009 C   0  0
   -0.0176    1.4478    0.0100 C   0  0
    0.0021   -0.0041    0.0020 O   0  0
   -1.1909   -0.6325    0.0100 C   0  0
   -2.2195    0.0158    0.0233 O   0  0
   -1.2478   -2.0987    0.0027 C   0  0
   -1.2589   -2.8215    1.1855 C   0  0
   -1.3176   -4.1866    1.0960 C   0  0
   -1.3450   -4.4633   -0.6650 S   0  0
   -1.2868   -2.8153   -1.1986 C   0  0
   -1.2804   -2.3291   -2.4911 N   0  0
   -1.3232   -3.1834   -3.5327 C   0  0
   -1.3672   -4.3790   -3.3348 O   0  0
   -1.3162   -2.6528   -4.9432 C   0  0
   -1.3684   -3.7756   -5.8890 N   0  0
   -0.1424   -4.5827   -5.8164 C   0  0
   -0.2692   -5.7839   -6.7564 C   0  0
   -0.5024   -5.3076   -8.1269 N   0  0
   -1.7284   -4.5005   -8.1995 C   0  0
   -1.6015   -3.2993   -7.2595 C   0  0
   -0.5546   -6.4304   -9.0727 C   0  0
    0.8004   -7.0855   -9.1500 C   0  0
    1.7191   -6.6590   -8.4829 O   0  0
    0.9913   -8.1453   -9.9604 N   0  0
    2.3085   -8.7821  -10.0356 C   0  0
    2.2550   -9.9340  -11.0058 C   0  0
    3.0977   -9.9864  -12.0074 C   0  0
   -1.3452   -5.1723    2.1759 C   0  0
   -1.3196   -4.8051    3.3354 O   0  0
   -1.3991   -6.4890    1.8862 O   0  0
   -1.4234   -7.3957    2.9904 C   0  0
   -1.4833   -8.8112    2.4769 C   0  0
   -0.7110   -9.7310    2.9999 C   0  0
   -1.2130   -2.1289    2.5232 C   0  0
    1.9335    1.6234   -0.9058 H   0  0
    1.9507    1.6137    0.8900 H   0  0
    1.4036    3.0773    0.0052 H   0  0
   -0.5324    1.8020    0.9153 H   0  0
   -0.5505    1.8114   -0.8809 H   0  0
   -1.2429   -1.3136   -2.6591 H   0  0
   -0.3969   -2.0733   -5.1136 H   0  0
   -2.1918   -2.0047   -5.0956 H   0  0
    0.0038   -4.9381   -4.7857 H   0  0
    0.7192   -3.9697   -6.1195 H   0  0
    0.6592   -6.3732   -6.7263 H   0  0
   -1.1141   -6.4125   -6.4384 H   0  0
   -1.8736   -4.1453   -9.2304 H   0  0
   -2.5907   -5.1128   -7.8968 H   0  0
   -2.5299   -2.7102   -7.2905 H   0  0
   -0.7569   -2.6715   -7.5796 H   0  0
   -0.8391   -6.0596  -10.0685 H   0  0
   -1.2975   -7.1653   -8.7290 H   0  0
    0.2111   -8.5075  -10.5269 H   0  0
    2.5943   -9.1546   -9.0408 H   0  0
    3.0518   -8.0478  -10.3797 H   0  0
    1.5084  -10.7308  -10.8729 H   0  0
    3.8444   -9.1896  -12.1403 H   0  0
    3.0587  -10.8272  -12.7156 H   0  0
   -2.3081   -7.1943    3.6123 H   0  0
   -0.5132   -7.2633    3.5938 H   0  0
   -2.1756   -9.0721    1.6628 H   0  0
   -0.0187   -9.4701    3.8140 H   0  0
   -0.7547  -10.7642    2.6250 H   0  0
   -2.0711   -1.4408    2.5078 H   0  0
   -0.3051   -1.5092    2.4826 H   0  0
   -1.2270   -2.8092    3.3875 H   0  0
  1  2  1  0
  2  3  1  0
  3  4  1  0
  4  5  2  0
  4  6  1  0
  6 10  2  0
  6  7  1  0
  7  8  2  0
  7 34  1  0
  8  9  1  0
  8 28  1  0
  9 10  1  0
 10 11  1  0
 11 12  1  0
 12 13  2  0
 12 14  1  0
 14 15  1  0
 15 20  1  0
 15 16  1  0
 16 17  1  0
 17 18  1  0
 18 19  1  0
 18 21  1  0
 19 20  1  0
 21 22  1  0
 22 23  2  0
 22 24  1  0
 24 25  1  0
 25 26  1  0
 26 27  2  0
 28 29  2  0
 28 30  1  0
 30 31  1  0
 31 32  1  0
 32 33  2  0
  1 35  1  0
  1 36  1  0
  1 37  1  0
  2 38  1  0
  2 39  1  0
 11 40  1  0
 14 41  1  0
 14 42  1  0
 16 43  1  0
 16 44  1  0
 17 45  1  0
 17 46  1  0
 19 47  1  0
 19 48  1  0
 20 49  1  0
 20 50  1  0
 21 51  1  0
 21 52  1  0
 24 53  1  0
 25 54  1  0
 25 55  1  0
 26 56  1  0
 27 57  1  0
 27 58  1  0
 31 59  1  0
 31 60  1  0
 32 61  1  0
 33 62  1  0
 33 63  1  0
 34 64  1  0
 34 65  1  0
 34 66  1  0
M  END
> <Name>
ZINC27559325

> <reference>
BDB50038593

> <quality>
0.663

> <status>
decoy

$$$$
ZINC20212479
  SciTegic06061311253D

 50 52  0  0  0  0            999 V2000
   -1.5162    2.7337   -1.3968 C   0  0
   -0.5069    2.3493   -0.3130 C   0  0
   -1.1488    2.4885    1.0433 C   0  0
   -1.0681    3.6876    1.7264 C   0  0
   -1.6606    3.8167    2.9686 C   0  0
   -2.3260    2.7439    3.5318 C   0  0
   -2.4022    1.5432    2.8510 C   0  0
   -1.8134    1.4154    1.6069 C   0  0
   -3.0776    2.9071    5.1171 S   0  0
   -3.3329    4.2923    5.3049 O   0  0
   -4.1048    1.9274    5.1824 O   0  0
   -1.9421    2.4781    6.2437 N   0  5
   -0.7366    3.1869    6.3283 N   0  0
   -0.3566    3.7326    7.5006 C   0  0
    1.1165    4.5987    7.6040 S   0  0
   -1.1363    3.5965    8.5915 N   0  0
   -0.7009    4.0853    9.8278 C   0  0
   -0.8348    3.3069   10.9701 C   0  0
   -0.3996    3.7906   12.1884 C   0  0
    0.1593    5.0526   12.2732 C   0  0
    0.2892    5.8322   11.1385 C   0  0
   -0.1392    5.3523    9.9164 C   0  0
    0.7076    5.6683   13.8304 S   0  0
    0.9748    4.5345   14.6442 O   0  0
    1.6910    6.6559   13.5532 O   0  0
   -0.5730    6.4571   14.5235 N   0  5
   -1.7068    5.7508   14.8859 C   0  0
   -1.8870    4.5280   14.4089 N   0  0
   -2.9568    3.8240   14.7399 C   0  0
   -3.8998    4.3848   15.5870 C   0  0
   -3.6826    5.6682   16.0632 C   0  0
   -2.5887    6.3157   15.6974 N   0  0
   -1.8360    3.7757   -1.2485 H   0  0
   -2.3914    2.0700   -1.3363 H   0  0
   -1.0483    2.6323   -2.3871 H   0  0
    0.3683    3.0129   -0.3735 H   0  0
   -0.1879    1.3072   -0.4619 H   0  0
   -0.5324    4.5391    1.2814 H   0  0
   -1.6026    4.7731    3.5089 H   0  0
   -2.9314    0.6894    3.2993 H   0  0
   -1.8737    0.4598    1.0654 H   0  0
   -0.1407    3.2910    5.4946 H   0  0
   -2.0527    3.1326    8.5149 H   0  0
   -1.2869    2.3063   10.9047 H   0  0
   -0.4977    3.1713   13.0922 H   0  0
    0.7342    6.8357   11.2093 H   0  0
   -0.0356    5.9730    9.0142 H   0  0
   -3.0964    2.8058   14.3477 H   0  0
   -4.8009    3.8235   15.8750 H   0  0
   -4.4111    6.1426   16.7372 H   0  0
  1  2  1  0
  2  3  1  0
  3  8  2  0
  3  4  1  0
  4  5  2  0
  5  6  1  0
  6  7  2  0
  6  9  1  0
  7  8  1  0
  9 10  2  0
  9 11  2  0
  9 12  1  0
 12 13  1  0
 13 14  1  0
 14 15  2  0
 14 16  1  0
 16 17  1  0
 17 22  2  0
 17 18  1  0
 18 19  2  0
 19 20  1  0
 20 21  2  0
 20 23  1  0
 21 22  1  0
 23 24  2  0
 23 25  2  0
 23 26  1  0
 26 27  1  0
 27 32  2  0
 27 28  1  0
 28 29  2  0
 29 30  1  0
 30 31  2  0
 31 32  1  0
  1 33  1  0
  1 34  1  0
  1 35  1  0
  2 36  1  0
  2 37  1  0
  4 38  1  0
  5 39  1  0
  7 40  1  0
  8 41  1  0
 13 42  1  0
 16 43  1  0
 18 44  1  0
 19 45  1  0
 21 46  1  0
 22 47  1  0
 29 48  1  0
 30 49  1  0
 31 50  1  0
M  CHG  2  12  -1  26  -1
M  END
> <Name>
ZINC20212479

> <reference>
BDB50038593

> <quality>
0.659

> <status>
decoy

$$$$
ZINC29982871
  SciTegic06061311253D

 67 68  0  0  0  0            999 V2000
    5.1226    5.3747   10.4998 C   0  0
    4.5621    4.7981    9.1981 C   0  0
    5.7019    4.1936    8.3757 C   0  0
    5.1652    3.6414    7.1294 N   0  0
    6.0239    3.0309    6.2071 C   0  0
    7.3826    2.9483    6.4713 C   0  0
    8.2288    2.3455    5.5590 C   0  0
    7.7245    1.8234    4.3824 C   0  0
    6.3702    1.8971    4.1131 C   0  0
    5.5151    2.5046    5.0200 C   0  0
    4.1441    2.5843    4.7473 N   0  0
    3.6119    2.0307    3.4997 C   0  0
    2.1209    2.2442    3.4511 C   0  0
    1.5582    2.8037    4.3683 O   0  0
    1.4128    1.8135    2.3883 N   0  0
    0.0201    1.9483    2.3743 C   0  0
   -0.7407    1.4199    3.4093 C   0  0
   -2.1153    1.5501    3.3899 C   0  0
   -2.7337    2.2155    2.3469 C   0  0
   -1.9792    2.7430    1.3155 C   0  0
   -0.6042    2.6112    1.3261 C   0  0
    0.2028    3.1763    0.2214 N   0  0
   -0.3335    3.8434   -0.6451 O   0  0
    1.4032    2.9741    0.1790 O   0  0
   -2.9421    0.9712    4.5090 C   0  0
   -0.0672    0.6998    4.5490 C   0  0
    8.8097    1.0568    3.2251 S   0  0
    8.1723    1.1344    1.9575 O   0  0
   10.1028    1.5964    3.4620 O   0  0
    8.8883   -0.5501    3.6177 N   0  0
    7.9397   -1.4962    3.0250 C   0  0
    8.5687   -2.1424    1.7891 C   0  0
    9.9064   -1.0256    4.5577 C   0  0
    9.3118   -1.0855    5.9662 C   0  0
    5.8610    6.1564   10.2679 H   0  0
    5.6066    4.5740   11.0783 H   0  0
    4.3036    5.8095   11.0916 H   0  0
    3.8241    4.0164    9.4310 H   0  0
    4.0781    5.5987    8.6195 H   0  0
    6.4401    4.9749    8.1420 H   0  0
    6.1865    3.3920    8.9524 H   0  0
    4.1562    3.7022    6.9316 H   0  0
    7.7872    3.3623    7.4066 H   0  0
    9.3065    2.2812    5.7700 H   0  0
    5.9712    1.4738    3.1795 H   0  0
    3.5097    3.0322    5.4239 H   0  0
    3.8290    0.9533    3.4533 H   0  0
    4.0823    2.5367    2.6438 H   0  0
    1.8968    1.3851    1.5864 H   0  0
   -3.8282    2.3252    2.3380 H   0  0
   -2.4744    3.2683    0.4855 H   0  0
   -2.5445    1.4309    5.4259 H   0  0
   -2.6766   -0.0959    4.5385 H   0  0
   -4.0239    1.1327    4.3922 H   0  0
    0.6536    1.4234    4.9574 H   0  0
    0.5138   -0.1047    4.0745 H   0  0
   -0.7640    0.3227    5.3120 H   0  0
    7.6920   -2.2762    3.7600 H   0  0
    7.0229   -0.9633    2.7327 H   0  0
    9.4852   -2.6768    2.0798 H   0  0
    8.8169   -1.3635    1.0531 H   0  0
    7.8569   -2.8529    1.3436 H   0  0
   10.7635   -0.3362    4.5514 H   0  0
   10.2413   -2.0298    4.2587 H   0  0
    8.4552   -1.7755    5.9747 H   0  0
    8.9765   -0.0819    6.2667 H   0  0
   10.0758   -1.4425    6.6726 H   0  0
  1  2  1  0
  2  3  1  0
  3  4  1  0
  4  5  1  0
  5 10  2  0
  5  6  1  0
  6  7  2  0
  7  8  1  0
  8  9  2  0
  8 27  1  0
  9 10  1  0
 10 11  1  0
 11 12  1  0
 12 13  1  0
 13 14  2  0
 13 15  1  0
 15 16  1  0
 16 21  2  0
 16 17  1  0
 17 18  2  0
 17 26  1  0
 18 19  1  0
 18 25  1  0
 19 20  2  0
 20 21  1  0
 21 22  1  0
 22 23  2  0
 22 24  2  0
 27 28  2  0
 27 29  2  0
 27 30  1  0
 30 31  1  0
 30 33  1  0
 31 32  1  0
 33 34  1  0
  1 35  1  0
  1 36  1  0
  1 37  1  0
  2 38  1  0
  2 39  1  0
  3 40  1  0
  3 41  1  0
  4 42  1  0
  6 43  1  0
  7 44  1  0
  9 45  1  0
 11 46  1  0
 12 47  1  0
 12 48  1  0
 15 49  1  0
 19 50  1  0
 20 51  1  0
 25 52  1  0
 25 53  1  0
 25 54  1  0
 26 55  1  0
 26 56  1  0
 26 57  1  0
 31 58  1  0
 31 59  1  0
 32 60  1  0
 32 61  1  0
 32 62  1  0
 33 63  1  0
 33 64  1  0
 34 65  1  0
 34 66  1  0
 34 67  1  0
M  END
> <Name>
ZINC29982871

> <reference>
BDB50038593

> <quality>
0.655

> <status>
decoy

$$$$
ZINC19808244
  SciTegic06061311253D

 64 68  0  0  0  0            999 V2000
  -16.4595    8.6977   -1.4676 C   0  0
  -14.9870    8.4119   -1.3221 C   0  0
  -14.4298    8.2789   -0.0640 C   0  0
  -13.0792    8.0167    0.0696 C   0  0
  -12.2858    7.8867   -1.0550 C   0  0
  -12.8421    8.0246   -2.3130 C   0  0
  -14.1936    8.2824   -2.4466 C   0  0
  -10.8134    7.6009   -0.9094 C   0  0
  -10.6021    6.1877   -0.8898 O   0  0
   -9.3198    5.7575   -0.7632 C   0  0
   -9.0456    4.3961   -0.7373 C   0  0
   -7.7464    3.9551   -0.6095 C   0  0
   -6.7039    4.8799   -0.5054 C   0  0
   -6.9852    6.2487   -0.5256 C   0  0
   -8.2869    6.6804   -0.6596 C   0  0
   -5.3124    4.4131   -0.3685 C   0  0
   -4.3455    5.2739   -0.2719 N   0  0
   -3.0230    4.8303   -0.1419 N   0  0
   -2.0191    5.7240   -0.0416 C   0  0
   -2.2679    6.9129    0.0284 O   0  0
   -0.6227    5.2619   -0.0167 C   0  0
    0.2129    5.0902   -1.0896 C   0  0
    1.3726    4.6540   -0.5967 N   0  0
    1.2874    4.5607    0.6821 N   0  0
    0.1178    4.9146    1.0866 N   0  0
   -0.3227    4.9359    2.4135 C   0  0
    0.4327    4.4597    3.5759 C   0  0
   -0.2956    4.6453    4.6424 N   0  0
   -1.5216    5.2264    4.2348 O   0  0
   -1.4765    5.3785    2.8271 N   0  0
    1.7093    3.9098    3.5475 N   0  0
   -0.1158    5.3387   -2.5392 C   0  0
    0.3201    6.6901   -2.9154 N   0  0
    1.7787    6.8603   -2.6922 C   0  0
    2.1371    8.0670   -3.5955 C   0  0
    1.2477    7.8434   -4.8401 C   0  0
    0.1016    6.9352   -4.3575 C   0  0
  -16.8478    7.8834   -2.0970 H   0  0
  -16.5139    9.6219   -2.0616 H   0  0
  -16.9936    8.7808   -0.5096 H   0  0
  -15.0612    8.3817    0.8308 H   0  0
  -12.6357    7.9115    1.0707 H   0  0
  -12.2093    7.9292   -3.2077 H   0  0
  -14.6377    8.3845   -3.4478 H   0  0
  -10.2687    8.0408   -1.7578 H   0  0
  -10.4448    8.0391    0.0298 H   0  0
   -9.8669    3.6689   -0.8189 H   0  0
   -7.5302    2.8767   -0.5895 H   0  0
   -6.1688    6.9803   -0.4347 H   0  0
   -8.5084    7.7576   -0.6846 H   0  0
   -5.0933    3.3353   -0.3482 H   0  0
   -2.8179    3.8211   -0.1230 H   0  0
    2.1442    3.8403    2.6164 H   0  0
    2.2023    3.5880    4.3927 H   0  0
   -1.2016    5.2490   -2.6907 H   0  0
    0.4042    4.5987   -3.1653 H   0  0
    1.9781    7.1037   -1.6382 H   0  0
    2.3240    5.9643   -3.0234 H   0  0
    3.2001    8.0315   -3.8763 H   0  0
    1.8651    9.0095   -3.0978 H   0  0
    1.8227    7.3361   -5.6288 H   0  0
    0.8436    8.8042   -5.1917 H   0  0
   -0.8627    7.4423   -4.5088 H   0  0
    0.1269    5.9820   -4.9060 H   0  0
  1  2  1  0
  2  7  2  0
  2  3  1  0
  3  4  2  0
  4  5  1  0
  5  6  2  0
  5  8  1  0
  6  7  1  0
  8  9  1  0
  9 10  1  0
 10 15  2  0
 10 11  1  0
 11 12  2  0
 12 13  1  0
 13 14  2  0
 13 16  1  0
 14 15  1  0
 16 17  2  0
 17 18  1  0
 18 19  1  0
 19 20  2  0
 19 21  1  0
 21 25  1  0
 21 22  2  0
 22 23  1  0
 22 32  1  0
 23 24  2  0
 24 25  1  0
 25 26  1  0
 26 30  2  0
 26 27  1  0
 27 28  2  0
 27 31  1  0
 28 29  1  0
 29 30  1  0
 32 33  1  0
 33 37  1  0
 33 34  1  0
 34 35  1  0
 35 36  1  0
 36 37  1  0
  1 38  1  0
  1 39  1  0
  1 40  1  0
  3 41  1  0
  4 42  1  0
  6 43  1  0
  7 44  1  0
  8 45  1  0
  8 46  1  0
 11 47  1  0
 12 48  1  0
 14 49  1  0
 15 50  1  0
 16 51  1  0
 18 52  1  0
 31 53  1  0
 31 54  1  0
 32 55  1  0
 32 56  1  0
 34 57  1  0
 34 58  1  0
 35 59  1  0
 35 60  1  0
 36 61  1  0
 36 62  1  0
 37 63  1  0
 37 64  1  0
M  END
> <Name>
ZINC19808244

> <reference>
BDB50038593

> <quality>
0.654

> <status>
decoy

$$$$
ZINC21284861
  SciTegic06061311253D

 53 55  0  0  1  0            999 V2000
   -0.9595    1.5737   -2.0954 C   0  0
   -0.4115    1.0547   -0.7645 C   0  0  2  0  0  0
   -1.3052    1.5121    0.3594 C   0  0
   -1.0371    2.5224    0.9746 O   0  0
   -2.4024    0.7985    0.6809 N   0  0
   -3.2907    1.2792    1.6493 C   0  0
   -3.9530    0.3919    2.4875 C   0  0
   -4.8252    0.8699    3.4459 C   0  0
   -5.0475    2.2297    3.5639 C   0  0
   -4.3939    3.1153    2.7269 C   0  0
   -3.5161    2.6441    1.7703 C   0  0
   -6.1656    2.8350    4.7837 S   0  0
   -6.2337    1.8440    5.7998 O   0  0
   -5.7851    4.1774    5.0530 O   0  0
   -7.6653    2.8995    4.0843 N   0  0
    1.2598    1.7004   -0.5073 S   0  0
    2.1011    0.9111   -1.8392 C   0  0
    1.5715    0.0904   -2.7189 N   0  0
    2.4671   -0.2985   -3.5545 N   0  0
    3.6250    0.2420   -3.2541 C   0  0
    3.4261    1.0333   -2.1463 N   0  0
    4.4271    1.8394   -1.4430 C   0  0
    4.9644    1.0613   -0.2696 C   0  0
    6.2565    0.8987   -0.1279 C   0  0
    4.9018    0.0388   -3.9710 C   0  0
    6.1132    0.3272   -3.3405 C   0  0
    7.3015    0.1304   -4.0133 C   0  0
    7.2936   -0.3413   -5.3140 C   0  0
    6.0960   -0.6237   -5.9467 C   0  0
    4.9010   -0.4367   -5.2833 C   0  0
    8.5724   -0.5443   -6.0322 N   0  0
    8.5686   -0.9591   -7.1774 O   0  0
    9.6283   -0.2966   -5.4778 O   0  0
   -0.9903    2.6731   -2.0767 H   0  0
   -1.9751    1.1817   -2.2528 H   0  0
   -0.3076    1.2402   -2.9162 H   0  0
   -0.3809   -0.0447   -0.7843 H   0  0
   -2.5870   -0.1007    0.2138 H   0  0
   -3.7832   -0.6904    2.3883 H   0  0
   -5.3435    0.1682    4.1160 H   0  0
   -4.5733    4.1963    2.8230 H   0  0
   -2.9962    3.3492    1.1051 H   0  0
   -8.1664    2.0283    3.8591 H   0  0
   -8.0970    3.8108    3.8745 H   0  0
    3.9635    2.7700   -1.0836 H   0  0
    5.2514    2.0818   -2.1299 H   0  0
    4.2716    0.6299    0.4679 H   0  0
    6.9493    1.3301   -0.8654 H   0  0
    6.6487    0.3307    0.7286 H   0  0
    6.1204    0.7105   -2.3095 H   0  0
    8.2573    0.3490   -3.5146 H   0  0
    6.0967   -0.9982   -6.9810 H   0  0
    3.9496   -0.6618   -5.7874 H   0  0
  1  2  1  0
  2  3  1  0
  2 16  1  0
  3  4  2  0
  3  5  1  0
  5  6  1  0
  6 11  2  0
  6  7  1  0
  7  8  2  0
  8  9  1  0
  9 10  2  0
  9 12  1  0
 10 11  1  0
 12 13  2  0
 12 14  2  0
 12 15  1  0
 16 17  1  0
 17 21  1  0
 17 18  2  0
 18 19  1  0
 19 20  2  0
 20 21  1  0
 20 25  1  0
 21 22  1  0
 22 23  1  0
 23 24  2  0
 25 30  2  0
 25 26  1  0
 26 27  2  0
 27 28  1  0
 28 29  2  0
 28 31  1  0
 29 30  1  0
 31 32  2  0
 31 33  2  0
  1 34  1  0
  1 35  1  0
  1 36  1  0
  2 37  1  0
  5 38  1  0
  7 39  1  0
  8 40  1  0
 10 41  1  0
 11 42  1  0
 15 43  1  0
 15 44  1  0
 22 45  1  0
 22 46  1  0
 23 47  1  0
 24 48  1  0
 24 49  1  0
 26 50  1  0
 27 51  1  0
 29 52  1  0
 30 53  1  0
M  END
> <Name>
ZINC21284861

> <reference>
BDB50038593

> <quality>
0.654

> <status>
decoy

$$$$
ZINC05012792
  SciTegic06061311253D

 74 78  0  0  1  0            999 V2000
   -0.0126    1.0758    0.0080 C   0  0
   -1.2190    1.7506    0.0173 C   0  0
   -1.2377    3.1328    0.0294 C   0  0
   -0.0501    3.8402    0.0228 C   0  0
    1.1563    3.1654    0.0081 C   0  0
    1.1750    1.7832    0.0004 C   0  0
   -0.0705    5.3471    0.0321 C   0  0
   -0.0888    5.8315   -1.3121 O   0  0
   -0.1091    7.2566   -1.4161 C   0  0
   -0.1275    7.6600   -2.8918 C   0  0  1  0  0  0
   -0.2577    9.1906   -3.0151 C   0  0  1  0  0  0
    1.0501    9.6272   -3.7190 C   0  0  1  0  0  0
    1.9893    8.4281   -3.4319 C   0  0  1  0  0  0
    1.1116    7.2849   -3.5166 O   0  0
    3.0743    8.3424   -4.4743 C   0  0
    4.4345    8.6297   -4.2691 C   0  0
    5.0871    8.4224   -5.4832 C   0  0
    4.1431    8.0333   -6.3797 N   0  5
    2.9078    7.9938   -5.7233 N   0  0
    6.5275    8.5975   -5.7461 C   0  0
    7.2701    8.9527   -4.8512 O   0  0
    7.0210    8.3638   -6.9783 N   0  0
    5.0570    9.0672   -3.0026 C   0  0
    5.4857    8.2424   -2.2193 O   0  0
    5.1495   10.3808   -2.7157 N   0  0
    5.7249   10.7853   -1.5447 N   0  0
    0.8444    9.7889   -5.1239 O   0  0
    1.7743   10.6756   -5.7492 C   0  0
    1.4656   10.7707   -7.2212 C   0  0
    2.0630    9.8971   -8.1105 C   0  0
    1.7765    9.9816   -9.4602 C   0  0
    0.8997   10.9455   -9.9217 C   0  0
    0.3064   11.8225   -9.0330 C   0  0
    0.5895   11.7352   -7.6828 C   0  0
   -1.3932    9.5334   -3.8120 O   0  0
   -2.5932    9.7279   -3.0608 C   0  0
   -3.7196   10.0832   -3.9967 C   0  0
   -3.9752   11.4077   -4.2991 C   0  0
   -5.0057   11.7334   -5.1610 C   0  0
   -5.7865   10.7353   -5.7132 C   0  0
   -5.5343    9.4112   -5.4067 C   0  0
   -4.5010    9.0852   -4.5482 C   0  0
    0.0024   -0.0241    0.0066 H   0  0
   -2.1641    1.1877    0.0151 H   0  0
   -2.1976    3.6697    0.0443 H   0  0
    2.1013    3.7283    0.0025 H   0  0
    2.1349    1.2462   -0.0118 H   0  0
   -0.9692    5.6985    0.5602 H   0  0
    0.8269    5.7239    0.5447 H   0  0
   -1.0086    7.6480   -0.9183 H   0  0
    0.7875    7.6734   -0.9340 H   0  0
   -0.9769    7.1558   -3.3758 H   0  0
   -0.3983    9.6827   -2.0414 H   0  0
    1.4423   10.5929   -3.3674 H   0  0
    2.5016    8.5059   -2.4616 H   0  0
    6.3920    8.0629   -7.7364 H   0  0
    8.0271    8.4861   -7.1619 H   0  0
    4.7863   11.0797   -3.3794 H   0  0
    6.0881   10.0864   -0.8810 H   0  0
    5.7956   11.7892   -1.3254 H   0  0
    2.7963   10.2921   -5.6137 H   0  0
    1.6935   11.6733   -5.2930 H   0  0
    2.7663    9.1348   -7.7442 H   0  0
    2.2463    9.2818  -10.1670 H   0  0
    0.6741   11.0147  -10.9961 H   0  0
   -0.3910   12.5898   -9.4003 H   0  0
    0.1176   12.4332   -6.9757 H   0  0
   -2.4466   10.5442   -2.3382 H   0  0
   -2.8430    8.8019   -2.5222 H   0  0
   -3.3586   12.2024   -3.8539 H   0  0
   -5.2044   12.7869   -5.4074 H   0  0
   -6.6085   10.9947   -6.3965 H   0  0
   -6.1558    8.6170   -5.8459 H   0  0
   -4.3006    8.0316   -4.3039 H   0  0
  1  6  2  0
  1  2  1  0
  2  3  2  0
  3  4  1  0
  4  5  2  0
  4  7  1  0
  5  6  1  0
  7  8  1  0
  8  9  1  0
  9 10  1  0
 10 14  1  0
 10 11  1  0
 11 12  1  0
 11 35  1  0
 12 13  1  0
 12 27  1  0
 13 14  1  0
 13 15  1  0
 15 19  2  0
 15 16  1  0
 16 17  2  0
 16 23  1  0
 17 18  1  0
 17 20  1  0
 18 19  1  0
 20 21  2  0
 20 22  1  0
 23 24  2  0
 23 25  1  0
 25 26  1  0
 27 28  1  0
 28 29  1  0
 29 34  2  0
 29 30  1  0
 30 31  2  0
 31 32  1  0
 32 33  2  0
 33 34  1  0
 35 36  1  0
 36 37  1  0
 37 42  2  0
 37 38  1  0
 38 39  2  0
 39 40  1  0
 40 41  2  0
 41 42  1  0
  1 43  1  0
  2 44  1  0
  3 45  1  0
  5 46  1  0
  6 47  1  0
  7 48  1  0
  7 49  1  0
  9 50  1  0
  9 51  1  0
 10 52  1  0
 11 53  1  0
 12 54  1  0
 13 55  1  0
 22 56  1  0
 22 57  1  0
 25 58  1  0
 26 59  1  0
 26 60  1  0
 28 61  1  0
 28 62  1  0
 30 63  1  0
 31 64  1  0
 32 65  1  0
 33 66  1  0
 34 67  1  0
 36 68  1  0
 36 69  1  0
 38 70  1  0
 39 71  1  0
 40 72  1  0
 41 73  1  0
 42 74  1  0
M  CHG  1  18  -1
M  END
> <Name>
ZINC05012792

> <reference>
BDB50038593

> <quality>
0.654

> <status>
decoy

$$$$
ZINC14157712
  SciTegic06061311253D

 61 63  0  0  0  0            999 V2000
   -1.0696    3.1819    0.4629 C   0  0
   -2.3849    3.8861    0.2505 C   0  0
   -3.5617    3.1601    0.1537 C   0  0
   -4.7497    3.8472   -0.0412 C   0  0
   -4.7247    5.1668   -0.1285 N   0  0
   -3.5827    5.8303   -0.0318 C   0  0
   -2.4300    5.2042    0.1491 N   0  0
   -3.5937    7.2153   -0.1280 N   0  0
   -2.4487    7.9270    0.1098 C   0  0
   -1.2693    7.3832   -0.1366 N   0  0
   -1.1428    6.4682   -1.1083 C   0  0
   -2.4705    6.1154   -2.1299 S   0  0
    0.0295    5.8261   -1.2809 N   0  0
    0.1970    4.9542   -2.3622 C   0  0
    0.8545    3.7461   -2.1815 C   0  0
    1.0230    2.8732   -3.2583 C   0  0
    0.5303    3.2172   -4.5158 C   0  0
   -0.1247    4.4343   -4.6950 C   0  0
   -0.2943    5.3000   -3.6125 C   0  0
   -0.6438    4.8058   -6.0276 C   0  0
   -1.1320    5.9038   -6.2048 O   0  0
   -0.5757    3.9267   -7.0460 O   0  0
   -1.1050    4.3595   -8.3269 C   0  0
    1.7234    1.5866   -3.0649 C   0  0
    2.1526    1.2875   -1.9687 O   0  0
    1.8860    0.7454   -4.1044 O   0  0
    2.5835   -0.5006   -3.8412 C   0  0
   -2.5249    9.1982    0.6014 N   0  0
   -3.8320    9.8009    0.8744 C   0  0
   -3.6399   11.1978    1.4060 C   0  0
   -3.5210   11.4201    2.7696 C   0  0
   -3.3410   12.7212    3.2129 C   0  0
   -3.2962   13.7476    2.2881 C   0  0
   -3.4178   13.4996    0.9989 N   0  0
   -3.5857   12.2742    0.5411 C   0  0
   -6.0537    3.1000   -0.1519 C   0  0
   -0.6508    3.6293    1.3764 H   0  0
   -0.4359    3.5017   -0.3774 H   0  0
   -1.1578    2.0876    0.5317 H   0  0
   -3.5530    2.0628    0.2299 H   0  0
   -4.4633    7.7073   -0.3783 H   0  0
    0.8021    5.9773   -0.6168 H   0  0
    1.2436    3.4755   -1.1888 H   0  0
    0.6581    2.5297   -5.3649 H   0  0
   -0.8181    6.2573   -3.7514 H   0  0
   -0.5562    5.2741   -8.5959 H   0  0
   -2.1554    4.6349   -8.1511 H   0  0
   -1.0133    3.5881   -9.1057 H   0  0
    2.0205   -1.0085   -3.0443 H   0  0
    3.5684   -0.2248   -3.4363 H   0  0
    2.6761   -1.1318   -4.7373 H   0  0
   -1.6634    9.7336    0.7804 H   0  0
   -4.3674    9.1957    1.6208 H   0  0
   -4.4190    9.8404   -0.0550 H   0  0
   -3.5684   10.5838    3.4826 H   0  0
   -3.2352   12.9341    4.2869 H   0  0
   -3.1575   14.7833    2.6317 H   0  0
   -3.6837   12.1070   -0.5417 H   0  0
   -6.1205    2.5099    0.7740 H   0  0
   -5.9028    2.3894   -0.9779 H   0  0
   -6.9298    3.7472   -0.3053 H   0  0
  1  2  1  0
  2  7  2  0
  2  3  1  0
  3  4  2  0
  4  5  1  0
  4 36  1  0
  5  6  2  0
  6  7  1  0
  6  8  1  0
  8  9  1  0
  9 10  2  0
  9 28  1  0
 10 11  1  0
 11 12  2  0
 11 13  1  0
 13 14  1  0
 14 19  2  0
 14 15  1  0
 15 16  2  0
 16 17  1  0
 16 24  1  0
 17 18  2  0
 18 19  1  0
 18 20  1  0
 20 21  2  0
 20 22  1  0
 22 23  1  0
 24 25  2  0
 24 26  1  0
 26 27  1  0
 28 29  1  0
 29 30  1  0
 30 35  2  0
 30 31  1  0
 31 32  2  0
 32 33  1  0
 33 34  2  0
 34 35  1  0
  1 37  1  0
  1 38  1  0
  1 39  1  0
  3 40  1  0
  8 41  1  0
 13 42  1  0
 15 43  1  0
 17 44  1  0
 19 45  1  0
 23 46  1  0
 23 47  1  0
 23 48  1  0
 27 49  1  0
 27 50  1  0
 27 51  1  0
 28 52  1  0
 29 53  1  0
 29 54  1  0
 31 55  1  0
 32 56  1  0
 33 57  1  0
 35 58  1  0
 36 59  1  0
 36 60  1  0
 36 61  1  0
M  END
> <Name>
ZINC14157712

> <reference>
BDB50038593

> <quality>
0.653

> <status>
decoy

$$$$
ZINC06194618
  SciTegic06061311253D

 59 62  0  0  0  0            999 V2000
    7.8538   10.8067   -1.5175 C   0  0
    7.5736   10.3928   -0.0958 C   0  0
    8.1083   11.1113    0.9622 C   0  0
    7.8261   10.6970    2.2546 C   0  0
    7.0597    9.6350    2.4390 N   0  0
    6.5638    8.9697    1.4053 C   0  0
    6.8190    9.3365    0.1573 N   0  0
    5.5473    7.5603    1.6969 S   0  0
    5.1772    7.0814   -0.0089 C   0  0
    4.2934    5.8608   -0.0075 C   0  0
    4.6904    4.6197   -0.0179 N   0  0
    3.6763    3.8304   -0.0067 N   0  0
    2.5652    4.5299    0.0019 C   0  0
    2.9237    5.8500    0.0056 N   0  0
    2.0676    6.9607    0.0204 C   0  0
    2.0386    7.8310   -1.0607 C   0  0
    1.1909    8.9214   -1.0453 C   0  0
    0.3793    9.1524    0.0501 C   0  0
    0.4097    8.2902    1.1307 C   0  0
    1.2516    7.1952    1.1187 C   0  0
    0.9237    3.8896    0.0141 S   0  0
    1.2785    2.1147    0.0012 C   0  0
   -0.0162    1.3436    0.0094 C   0  0
   -1.0746    1.9356    0.0177 O   0  0
    0.0021   -0.0041    0.0020 N   0  0
   -1.2016   -0.7210    0.0097 N   0  0
   -1.1833   -2.0686    0.0022 C   0  0
   -0.1222   -2.6622   -0.0111 O   0  0
   -2.4508   -2.8236    0.0103 C   0  0
   -3.6722   -2.1457    0.0314 C   0  0
   -4.8525   -2.8567    0.0339 C   0  0
   -4.8342   -4.2420    0.0258 C   0  0
   -3.6342   -4.9245    0.0103 C   0  0
   -2.4365   -4.2249    0.0026 C   0  0
   -1.2566   -4.8942   -0.0117 O   0  0
    8.3854   11.4480    3.4354 C   0  0
    6.8631   10.9527   -1.9727 H   0  0
    8.3026    9.9203   -1.9896 H   0  0
    8.4923   11.6984   -1.6027 H   0  0
    8.7428   11.9912    0.7801 H   0  0
    6.1141    6.8542   -0.5386 H   0  0
    4.6594    7.9078   -0.5177 H   0  0
    2.6901    7.6524   -1.9288 H   0  0
    1.1614    9.6067   -1.9053 H   0  0
   -0.2919   10.0238    0.0619 H   0  0
   -0.2372    8.4765    2.0007 H   0  0
    1.2754    6.5097    1.9786 H   0  0
    1.8672    1.8509    0.8922 H   0  0
    1.8498    1.8615   -0.9041 H   0  0
    0.9010   -0.5069   -0.0093 H   0  0
   -2.1005   -0.2182    0.0211 H   0  0
   -3.6916   -1.0460    0.0460 H   0  0
   -5.8137   -2.3219    0.0424 H   0  0
   -5.7813   -4.8014    0.0318 H   0  0
   -3.6279   -6.0245    0.0040 H   0  0
   -0.7667   -4.5610    0.7815 H   0  0
    8.0409   12.4839    3.3003 H   0  0
    9.4745   11.4468    3.2809 H   0  0
    8.0960   11.0297    4.4107 H   0  0
  1  2  1  0
  2  7  2  0
  2  3  1  0
  3  4  2  0
  4  5  1  0
  4 36  1  0
  5  6  2  0
  6  7  1  0
  6  8  1  0
  8  9  1  0
  9 10  1  0
 10 14  1  0
 10 11  2  0
 11 12  1  0
 12 13  2  0
 13 14  1  0
 13 21  1  0
 14 15  1  0
 15 20  2  0
 15 16  1  0
 16 17  2  0
 17 18  1  0
 18 19  2  0
 19 20  1  0
 21 22  1  0
 22 23  1  0
 23 24  2  0
 23 25  1  0
 25 26  1  0
 26 27  1  0
 27 28  2  0
 27 29  1  0
 29 34  2  0
 29 30  1  0
 30 31  2  0
 31 32  1  0
 32 33  2  0
 33 34  1  0
 34 35  1  0
  1 37  1  0
  1 38  1  0
  1 39  1  0
  3 40  1  0
  9 41  1  0
  9 42  1  0
 16 43  1  0
 17 44  1  0
 18 45  1  0
 19 46  1  0
 20 47  1  0
 22 48  1  0
 22 49  1  0
 25 50  1  0
 26 51  1  0
 30 52  1  0
 31 53  1  0
 32 54  1  0
 33 55  1  0
 35 56  1  0
 36 57  1  0
 36 58  1  0
 36 59  1  0
M  END
> <Name>
ZINC06194618

> <reference>
BDB50038593

> <quality>
0.650

> <status>
decoy

$$$$
ZINC03830928
  SciTegic06061311253D

 92 96  0  0  1  0            999 V2000
    2.5956   -7.9101    3.3919 C   0  0
    3.9659   -8.0355    2.7230 C   0  0  2  0  0  0
    4.3422   -9.5138    2.6045 C   0  0
    5.0143   -7.3086    3.5677 C   0  0
    3.9140   -7.4363    1.3872 N   0  0
    3.6003   -6.1333    1.2449 C   0  0
    3.3610   -5.4568    2.2227 O   0  0
    3.5468   -5.5168   -0.1292 C   0  0  2  0  0  0
    4.9270   -4.9664   -0.4960 C   0  0
    3.8830   -3.2358   -1.8277 C   0  0
    2.5027   -3.7862   -1.4610 C   0  0
    1.2427   -4.8961    0.2841 C   0  0
    0.3126   -3.6985    0.4878 C   0  0  1  0  0  0
   -1.0533   -4.1900    0.9714 C   0  0
   -2.0203   -3.0074    1.0558 C   0  0  1  0  0  0
   -2.2650   -2.4476   -0.3470 C   0  0
   -3.1178   -1.2088   -0.2517 C   0  0
   -4.4842   -1.2939   -0.4427 C   0  0
   -5.2671   -0.1584   -0.3505 C   0  0
   -4.6823    1.0640   -0.0774 C   0  0
   -3.3151    1.1501    0.1080 C   0  0
   -2.5329    0.0137    0.0210 C   0  0
   -3.3273   -3.4684    1.6477 C   0  0
   -4.1937   -3.9182    0.9281 O   0  0
   -3.5333   -3.3809    2.9767 N   0  0
   -4.7525   -3.9385    3.5673 C   0  0  2  0  0  0
   -5.8641   -2.9113    3.5452 C   0  0
   -6.2641   -2.0431    2.5430 C   0  0
   -7.3225   -1.1810    2.7519 C   0  0
   -7.9853   -1.1834    3.9652 C   0  0
   -7.5876   -2.0481    4.9659 C   0  0
   -6.5267   -2.9138    4.7582 C   0  0
   -5.9057   -3.9428    5.6784 C   0  0
   -4.5260   -4.2599    5.0598 C   0  0  2  0  0  0
   -3.5153   -3.4151    5.6137 O   0  0
    0.8751   -2.8191    1.4636 O   0  0
    6.1871   -3.8564   -2.2410 C   0  0
    6.1330   -3.4345   -3.6867 C   0  0
    6.4050   -4.3468   -4.6950 C   0  0
    6.3389   -3.9152   -6.0107 C   0  0
    6.0159   -2.5968   -6.2717 C   0  0
    5.7682   -1.7555   -5.2871 N   0  0
    5.8174   -2.1322   -4.0241 C   0  0
    4.8533   -4.3508   -1.8376 N   0  0
    2.5764   -4.4017   -0.1193 N   0  0
    2.6336   -8.3596    4.3952 H   0  0
    1.8411   -8.4323    2.7852 H   0  0
    2.3244   -6.8475    3.4774 H   0  0
    3.5892  -10.0374    1.9971 H   0  0
    4.3818   -9.9647    3.6071 H   0  0
    5.3273   -9.6047    2.1236 H   0  0
    5.0543   -7.7581    4.5709 H   0  0
    4.7448   -6.2456    3.6534 H   0  0
    5.9998   -7.3984    3.0873 H   0  0
    4.1172   -8.0108    0.5568 H   0  0
    3.2434   -6.2784   -0.8626 H   0  0
    5.6604   -5.7862   -0.5074 H   0  0
    5.2287   -4.2075    0.2409 H   0  0
    3.8424   -2.7745   -2.8255 H   0  0
    4.1914   -2.4866   -1.0837 H   0  0
    1.7701   -2.9657   -1.4497 H   0  0
    2.2001   -4.5451   -2.1976 H   0  0
    0.8383   -5.5478   -0.5044 H   0  0
    1.3285   -5.4599    1.2247 H   0  0
    0.1929   -3.1611   -0.4645 H   0  0
   -0.9483   -4.6484    1.9658 H   0  0
   -1.4467   -4.9348    0.2639 H   0  0
   -1.5856   -2.2231    1.6929 H   0  0
   -2.7819   -3.2015   -0.9588 H   0  0
   -1.3018   -2.1940   -0.8139 H   0  0
   -4.9486   -2.2653   -0.6681 H   0  0
   -6.3554   -0.2275   -0.4944 H   0  0
   -5.3048    1.9682   -0.0076 H   0  0
   -2.8496    2.1229    0.3248 H   0  0
   -1.4450    0.0822    0.1688 H   0  0
   -2.8335   -2.9220    3.5772 H   0  0
   -5.0107   -4.8369    2.9874 H   0  0
   -5.7370   -2.0402    1.5775 H   0  0
   -7.6379   -0.4930    1.9537 H   0  0
   -8.8285   -0.4973    4.1333 H   0  0
   -8.1152   -2.0493    5.9311 H   0  0
   -5.7773   -3.5193    6.6855 H   0  0
   -6.5246   -4.8519    5.7013 H   0  0
   -4.1852   -5.2896    5.2432 H   0  0
   -3.7980   -2.4712    5.5177 H   0  0
    1.7589   -2.5003    1.1515 H   0  0
    6.4647   -2.9954   -1.6152 H   0  0
    6.9292   -4.6592   -2.1191 H   0  0
    6.6670   -5.3882   -4.4565 H   0  0
    6.5409   -4.6131   -6.8366 H   0  0
    5.9649   -2.2454   -7.3128 H   0  0
    5.6047   -1.4012   -3.2301 H   0  0
  1  2  1  0
  2  3  1  0
  2  4  1  0
  2  5  1  0
  5  6  1  0
  6  7  2  0
  6  8  1  0
  8  9  1  0
  8 45  1  0
  9 44  1  0
 10 11  1  0
 10 44  1  0
 11 45  1  0
 12 13  1  0
 12 45  1  0
 13 14  1  0
 13 36  1  0
 14 15  1  0
 15 16  1  0
 15 23  1  0
 16 17  1  0
 17 22  2  0
 17 18  1  0
 18 19  2  0
 19 20  1  0
 20 21  2  0
 21 22  1  0
 23 24  2  0
 23 25  1  0
 25 26  1  0
 26 34  1  0
 26 27  1  0
 27 32  2  0
 27 28  1  0
 28 29  2  0
 29 30  1  0
 30 31  2  0
 31 32  1  0
 32 33  1  0
 33 34  1  0
 34 35  1  0
 37 38  1  0
 37 44  1  0
 38 43  2  0
 38 39  1  0
 39 40  2  0
 40 41  1  0
 41 42  2  0
 42 43  1  0
  1 46  1  0
  1 47  1  0
  1 48  1  0
  3 49  1  0
  3 50  1  0
  3 51  1  0
  4 52  1  0
  4 53  1  0
  4 54  1  0
  5 55  1  0
  8 56  1  0
  9 57  1  0
  9 58  1  0
 10 59  1  0
 10 60  1  0
 11 61  1  0
 11 62  1  0
 12 63  1  0
 12 64  1  0
 13 65  1  0
 14 66  1  0
 14 67  1  0
 15 68  1  0
 16 69  1  0
 16 70  1  0
 18 71  1  0
 19 72  1  0
 20 73  1  0
 21 74  1  0
 22 75  1  0
 25 76  1  0
 26 77  1  0
 28 78  1  0
 29 79  1  0
 30 80  1  0
 31 81  1  0
 33 82  1  0
 33 83  1  0
 34 84  1  0
 35 85  1  0
 36 86  1  0
 37 87  1  0
 37 88  1  0
 39 89  1  0
 40 90  1  0
 41 91  1  0
 43 92  1  0
M  END
> <Name>
ZINC03830928

> <reference>
BDB50038593

> <quality>
0.649

> <status>
decoy

$$$$
ZINC25540294
  SciTegic06061311253D

 63 66  0  0  1  0            999 V2000
   -3.4340    2.1550    4.9707 C   0  0
   -3.0579    1.3141    3.8316 N   0  0
   -2.0538    1.7251    2.9693 C   0  0
   -1.7164    0.9075    1.8956 C   0  0
   -2.4011   -0.3080    1.7166 C   0  0
   -2.1225   -1.0399    0.7828 O   0  0
   -3.3700   -0.6547    2.5889 N   0  0
   -3.6882    0.1428    3.6231 C   0  0
   -4.5669   -0.2024    4.3897 O   0  0
   -4.0866   -1.9193    2.4060 C   0  0
   -0.6984    1.5583    1.2133 N   0  0
   -0.4563    2.7169    1.8834 C   0  0
   -1.2700    2.8026    2.9167 N   0  0
    0.4887    3.6551    1.5349 N   0  0
    0.6442    4.8133    2.3077 N   0  0
    1.5353    5.6980    1.9790 C   0  0
    1.6990    6.9170    2.7924 C   0  0
    0.8929    7.1258    3.9141 C   0  0
    1.0546    8.2663    4.6727 C   0  0
    2.0056    9.2073    4.3193 C   0  0
    2.8043    9.0094    3.2069 C   0  0
    2.6571    7.8714    2.4417 C   0  0
    2.1689   10.4318    5.1351 N   0  0
    3.0048   11.2622    4.8264 O   0  0
    1.4674   10.6090    6.1149 O   0  0
   -0.0127    1.0858    0.0080 C   0  0
   -0.7527    1.5927   -1.2315 C   0  0  1  0  0  0
    0.0310    1.2054   -2.4872 C   0  0
   -0.5972    1.7776   -3.6361 O   0  0
   -0.0221    1.5280   -4.8428 C   0  0
    1.1259    0.7532   -4.9168 C   0  0
    1.7077    0.4960   -6.1430 C   0  0
    1.1493    1.0205   -7.2992 C   0  0
    0.0040    1.7993   -7.2246 C   0  0
   -0.5802    2.0529   -5.9989 C   0  0
    1.7244    0.7709   -8.5058 O   0  0
    2.9019   -0.0387   -8.5082 C   0  0
   -2.0545    1.0054   -1.2824 O   0  0
   -3.3103    1.5124    5.8549 H   0  0
   -4.5118    2.3381    4.8487 H   0  0
   -2.8558    3.0878    5.0458 H   0  0
   -3.3078   -2.6961    2.3985 H   0  0
   -4.5099   -1.8693    1.3919 H   0  0
   -4.8552   -2.1063    3.1703 H   0  0
    1.0815    3.5056    0.7060 H   0  0
    2.1683    5.5384    1.0937 H   0  0
    0.1311    6.3824    4.1916 H   0  0
    0.4260    8.4282    5.5608 H   0  0
    3.5585    9.7615    2.9322 H   0  0
    3.2925    7.7156    1.5574 H   0  0
    0.0025   -0.0141    0.0008 H   0  0
    1.0191    1.4669   -0.0002 H   0  0
   -0.8461    2.6875   -1.1807 H   0  0
    1.0613    1.5824   -2.4074 H   0  0
    0.0480    0.1101   -2.5869 H   0  0
    1.5731    0.3435   -3.9991 H   0  0
    2.6138   -0.1248   -6.2025 H   0  0
   -0.4391    2.2150   -8.1416 H   0  0
   -1.4881    2.6712   -5.9397 H   0  0
    2.6241   -0.9899   -8.0307 H   0  0
    3.6269    0.4680   -7.8543 H   0  0
    3.3081   -0.1959   -9.5183 H   0  0
   -2.5625    1.2556   -0.4703 H   0  0
  1  2  1  0
  2  8  1  0
  2  3  1  0
  3 13  1  0
  3  4  2  0
  4  5  1  0
  4 11  1  0
  5  6  2  0
  5  7  1  0
  7  8  1  0
  7 10  1  0
  8  9  2  0
 11 12  1  0
 11 26  1  0
 12 13  2  0
 12 14  1  0
 14 15  1  0
 15 16  2  0
 16 17  1  0
 17 22  2  0
 17 18  1  0
 18 19  2  0
 19 20  1  0
 20 21  2  0
 20 23  1  0
 21 22  1  0
 23 24  2  0
 23 25  2  0
 26 27  1  0
 27 28  1  0
 27 38  1  0
 28 29  1  0
 29 30  1  0
 30 35  2  0
 30 31  1  0
 31 32  2  0
 32 33  1  0
 33 34  2  0
 33 36  1  0
 34 35  1  0
 36 37  1  0
  1 39  1  0
  1 40  1  0
  1 41  1  0
 10 42  1  0
 10 43  1  0
 10 44  1  0
 14 45  1  0
 16 46  1  0
 18 47  1  0
 19 48  1  0
 21 49  1  0
 22 50  1  0
 26 51  1  0
 26 52  1  0
 27 53  1  0
 28 54  1  0
 28 55  1  0
 31 56  1  0
 32 57  1  0
 34 58  1  0
 35 59  1  0
 37 60  1  0
 37 61  1  0
 37 62  1  0
 38 63  1  0
M  END
> <Name>
ZINC25540294

> <reference>
BDB50038593

> <quality>
0.648

> <status>
decoy

$$$$
ZINC01748113
  SciTegic06061311253D

 69 72  0  0  0  0            999 V2000
    5.6920    6.0604   -6.5628 C   0  0
    4.9892    6.5420   -5.2920 C   0  0
    3.6564    5.9694   -5.2294 O   0  0
    2.9025    6.2952   -4.1677 C   0  0
    3.3417    7.0344   -3.3188 O   0  0
    1.5082    5.7391   -4.0345 C   0  0
    0.8984    6.2402   -2.8003 N   0  0
   -0.7393    6.1290   -2.5815 S   0  0
   -1.0124    6.6489   -1.2875 O   0  0
   -1.3426    6.6536   -3.7562 O   0  0
   -1.1429    4.4145   -2.5308 C   0  0
   -1.9336    3.8637   -3.5187 C   0  0
   -2.2478    2.5056   -3.4800 C   0  0
   -1.7691    1.7143   -2.4358 C   0  0
   -0.9841    2.2777   -1.4510 C   0  0
   -0.6712    3.6247   -1.4979 C   0  0
    0.1867    4.2338   -0.4190 C   0  0
   -3.0915    1.9070   -4.5403 C   0  0
   -3.0027    2.4062   -5.9224 C   0  0
   -1.9842    3.2607   -6.3359 C   0  0
   -1.9536    3.6995   -7.6429 C   0  0
   -2.9246    3.3005   -8.5504 C   0  0
   -3.9423    2.4529   -8.1625 C   0  0
   -3.9878    1.9991   -6.8500 C   0  0
   -5.0390    1.0854   -6.3620 C   0  0
   -6.2117    0.9856   -6.9559 N   0  0
   -7.1915    0.2041   -6.4082 C   0  0
   -7.2383   -1.1630   -6.6925 C   0  0
   -8.2255   -1.9476   -6.1343 C   0  0
   -9.1777   -1.3793   -5.2994 C   0  0
   -9.1383   -0.0207   -5.0177 C   0  0
   -8.1522    0.7713   -5.5672 C   0  0
  -10.1521   -2.1562   -4.7552 O   0  0
  -10.1342   -3.5462   -5.0864 C   0  0
  -11.2796   -4.2417   -4.3969 C   0  0
  -12.0367   -3.6093   -3.6913 O   0  0
  -11.4626   -5.5664   -4.5644 N   0  0
  -12.5761   -6.2425   -3.8941 C   0  0
   -4.7162    0.3395   -5.2403 N   0  0
   -3.9145    0.9281   -4.2499 N   0  0
    5.1157    6.3776   -7.4444 H   0  0
    5.7655    4.9629   -6.5489 H   0  0
    6.7019    6.4939   -6.6108 H   0  0
    5.5660    6.2241   -4.4109 H   0  0
    4.9157    7.6395   -5.3058 H   0  0
    1.5521    4.6405   -4.0011 H   0  0
    0.9030    6.0559   -4.8967 H   0  0
    1.4883    6.6617   -2.0687 H   0  0
   -2.3152    4.4946   -4.3350 H   0  0
   -2.0170    0.6433   -2.3976 H   0  0
   -0.6062    1.6548   -0.6269 H   0  0
   -0.4145    5.0566   -0.0048 H   0  0
    1.0367    4.6870   -0.9501 H   0  0
    0.5063    3.5171    0.3519 H   0  0
   -1.2093    3.5835   -5.6250 H   0  0
   -1.1491    4.3745   -7.9703 H   0  0
   -2.8828    3.6630   -9.5881 H   0  0
   -4.7100    2.1396   -8.8854 H   0  0
   -6.4890   -1.6128   -7.3605 H   0  0
   -8.2584   -3.0255   -6.3510 H   0  0
   -9.8949    0.4249   -4.3551 H   0  0
   -8.1220    1.8479   -5.3437 H   0  0
   -9.1839   -3.9908   -4.7559 H   0  0
  -10.2357   -3.6652   -6.1752 H   0  0
  -10.8196   -6.1034   -5.1636 H   0  0
  -13.4778   -5.7057   -4.2239 H   0  0
  -12.4407   -6.0259   -2.8242 H   0  0
  -12.6312   -7.3216   -4.1002 H   0  0
   -5.0573   -0.6267   -5.1352 H   0  0
  1  2  1  0
  2  3  1  0
  3  4  1  0
  4  5  2  0
  4  6  1  0
  6  7  1  0
  7  8  1  0
  8  9  2  0
  8 10  2  0
  8 11  1  0
 11 16  2  0
 11 12  1  0
 12 13  2  0
 13 14  1  0
 13 18  1  0
 14 15  2  0
 15 16  1  0
 16 17  1  0
 18 40  2  0
 18 19  1  0
 19 24  2  0
 19 20  1  0
 20 21  2  0
 21 22  1  0
 22 23  2  0
 23 24  1  0
 24 25  1  0
 25 26  2  0
 25 39  1  0
 26 27  1  0
 27 32  2  0
 27 28  1  0
 28 29  2  0
 29 30  1  0
 30 31  2  0
 30 33  1  0
 31 32  1  0
 33 34  1  0
 34 35  1  0
 35 36  2  0
 35 37  1  0
 37 38  1  0
 39 40  1  0
  1 41  1  0
  1 42  1  0
  1 43  1  0
  2 44  1  0
  2 45  1  0
  6 46  1  0
  6 47  1  0
  7 48  1  0
 12 49  1  0
 14 50  1  0
 15 51  1  0
 17 52  1  0
 17 53  1  0
 17 54  1  0
 20 55  1  0
 21 56  1  0
 22 57  1  0
 23 58  1  0
 28 59  1  0
 29 60  1  0
 31 61  1  0
 32 62  1  0
 34 63  1  0
 34 64  1  0
 37 65  1  0
 38 66  1  0
 38 67  1  0
 38 68  1  0
 39 69  1  0
M  END
> <Name>
ZINC01748113

> <reference>
BDB50038593

> <quality>
0.646

> <status>
decoy

$$$$
ZINC10822845
  SciTegic06061311253D

 60 63  0  0  0  0            999 V2000
  -12.6147    4.5466    4.0765 C   0  0
  -11.4774    5.0481    3.1844 C   0  0
  -11.7375    6.5053    2.7973 C   0  0
  -10.6002    7.0068    1.9052 C   0  0
  -10.8493    8.4021    1.5345 N   0  0
   -9.6286    9.3189    0.8929 S   0  0
   -8.5010    9.1438    1.7397 O   0  0
  -10.1831   10.5979    0.6174 O   0  0
   -9.2054    8.6079   -0.6627 C   0  0
   -9.8487    9.0286   -1.8125 C   0  0
   -9.5191    8.4735   -3.0351 C   0  0
   -8.5455    7.4966   -3.1118 C   0  0
   -7.8978    7.0720   -1.9594 C   0  0
   -8.2355    7.6273   -0.7319 C   0  0
   -6.9110    6.0828   -2.0337 N   0  0
   -5.8630    6.1113   -1.1867 C   0  0
   -5.7242    7.0449   -0.4249 O   0  0
   -4.8636    4.9834   -1.1862 C   0  0
   -3.7825    5.2603   -0.1396 C   0  0
   -2.7831    4.1324   -0.1392 C   0  0
   -1.4829    4.4285   -0.3136 N   0  5
   -0.5339    3.4401   -0.3209 C   0  0
   -0.9475    2.1167   -0.1491 C   0  0
    0.2056    1.3096   -0.1906 C   0  0
    1.2391    2.0830   -0.3826 N   0  0
    0.8124    3.4148   -0.4681 N   0  0
    1.6370    4.5295   -0.6717 C   0  0
    1.1840    5.6006   -1.4302 C   0  0
    1.9971    6.7001   -1.6247 C   0  0
    3.2651    6.7301   -1.0739 C   0  0
    3.7210    5.6626   -0.3224 C   0  0
    2.9107    4.5626   -0.1200 C   0  0
   -2.3790    1.8627    0.0420 C   0  0
   -2.7979    0.7281    0.2018 O   0  0
   -3.2200    2.9154    0.0308 N   0  0
  -13.5676    4.6159    3.5313 H   0  0
  -12.6677    5.1630    4.9861 H   0  0
  -12.4283    3.4989    4.3552 H   0  0
  -10.5250    4.9787    3.7305 H   0  0
  -11.4243    4.4318    2.2748 H   0  0
  -12.6896    6.5753    2.2508 H   0  0
  -11.7898    7.1234    3.7057 H   0  0
  -10.5471    6.3904    0.9957 H   0  0
   -9.6478    6.9375    2.4513 H   0  0
  -11.7837    8.8128    1.6729 H   0  0
  -10.6242    9.8065   -1.7541 H   0  0
  -10.0327    8.8101   -3.9477 H   0  0
   -8.2836    7.0555   -4.0849 H   0  0
   -7.7309    7.2864    0.1842 H   0  0
   -6.9855    5.3328   -2.7357 H   0  0
   -5.3751    4.0402   -0.9436 H   0  0
   -4.3989    4.9034   -2.1800 H   0  0
   -3.2704    6.2032   -0.3819 H   0  0
   -4.2453    5.3395    0.8552 H   0  0
    0.2309    0.2154   -0.0802 H   0  0
    0.1786    5.5736   -1.8758 H   0  0
    1.6356    7.5527   -2.2183 H   0  0
    3.9125    7.6049   -1.2339 H   0  0
    4.7301    5.6895    0.1147 H   0  0
    3.2741    3.7136    0.4777 H   0  0
  1  2  1  0
  2  3  1  0
  3  4  1  0
  4  5  1  0
  5  6  1  0
  6  7  2  0
  6  8  2  0
  6  9  1  0
  9 14  2  0
  9 10  1  0
 10 11  2  0
 11 12  1  0
 12 13  2  0
 13 14  1  0
 13 15  1  0
 15 16  1  0
 16 17  2  0
 16 18  1  0
 18 19  1  0
 19 20  1  0
 20 35  2  0
 20 21  1  0
 21 22  1  0
 22 26  1  0
 22 23  2  0
 23 24  1  0
 23 33  1  0
 24 25  2  0
 25 26  1  0
 26 27  1  0
 27 32  2  0
 27 28  1  0
 28 29  2  0
 29 30  1  0
 30 31  2  0
 31 32  1  0
 33 34  2  0
 33 35  1  0
  1 36  1  0
  1 37  1  0
  1 38  1  0
  2 39  1  0
  2 40  1  0
  3 41  1  0
  3 42  1  0
  4 43  1  0
  4 44  1  0
  5 45  1  0
 10 46  1  0
 11 47  1  0
 12 48  1  0
 14 49  1  0
 15 50  1  0
 18 51  1  0
 18 52  1  0
 19 53  1  0
 19 54  1  0
 24 55  1  0
 28 56  1  0
 29 57  1  0
 30 58  1  0
 31 59  1  0
 32 60  1  0
M  CHG  1  21  -1
M  END
> <Name>
ZINC10822845

> <reference>
BDB50038593

> <quality>
0.645

> <status>
decoy

$$$$
ZINC08796142
  SciTegic06061311253D

 69 72  0  0  0  0            999 V2000
    3.1588   -2.8244    1.3931 C   0  0
    2.6326   -2.6988   -0.0380 C   0  0  1  0  0  0
    2.4903   -4.0924   -0.6533 C   0  0
    1.3260   -2.0365   -0.0215 N   0  0
    1.2508   -0.6576   -0.0138 C   0  0
    0.0021   -0.0041    0.0020 C   0  0
   -1.3420   -0.4357    0.0130 C   0  0
   -2.1126    0.6143    0.0263 N   0  0
   -1.3287    1.7749    0.0297 N   0  0
   -0.0170    1.4040    0.0098 C   0  0
    1.1400    2.0640    0.0023 N   0  0
    2.2890    1.4092   -0.0130 C   0  0
    2.3526    0.0819   -0.0208 N   0  0
    3.7908    2.3307   -0.0235 S   0  0
    4.9908    0.9758   -0.0431 C   0  0  1  0  0  0
    6.4033    1.5475   -0.1803 C   0  0
    4.8860    0.1828    1.2612 C   0  0
   -1.8318    3.1507    0.0446 C   0  0
   -2.0264    3.6382   -1.3926 C   0  0
   -2.5295    5.0140   -1.3776 N   0  0
   -2.7767    5.6537   -2.5379 C   0  0
   -2.5822    5.0892   -3.5966 O   0  0
   -3.2844    7.0422   -2.5228 C   0  0
   -3.5143    7.6913   -1.3088 C   0  0
   -3.9831    8.9888   -1.3018 C   0  0
   -4.2358    9.6427   -2.4946 C   0  0
   -4.0155    9.0030   -3.7015 C   0  0
   -3.5414    7.7076   -3.7226 C   0  0
   -4.8415   11.2972   -2.4767 S   0  0
   -4.4468   11.8607   -1.2333 O   0  0
   -4.4809   11.8752   -3.7237 O   0  0
   -6.4952   11.2131   -2.4545 N   0  0
   -7.3675   11.1829   -3.6376 C   0  0
   -8.8243   11.1279   -3.1315 C   0  0
   -8.7139   11.7092   -1.6972 C   0  0
   -7.3368   11.1624   -1.2452 C   0  0
    4.1401   -3.3213    1.3818 H   0  0
    2.4542   -3.4191    1.9930 H   0  0
    3.2613   -1.8228    1.8361 H   0  0
    3.3377   -2.1038   -0.6370 H   0  0
    1.7852   -4.6882   -0.0551 H   0  0
    3.4710   -4.5904   -0.6664 H   0  0
    2.1120   -4.0028   -1.6823 H   0  0
    0.4634   -2.5993   -0.0156 H   0  0
   -1.6812   -1.4821    0.0107 H   0  0
    4.7799    0.3115   -0.8941 H   0  0
    6.6155    2.2118    0.6704 H   0  0
    6.4799    2.1175   -1.1179 H   0  0
    7.1331    0.7246   -0.1923 H   0  0
    3.8709   -0.2291    1.3607 H   0  0
    5.0971    0.8461    2.1129 H   0  0
    5.6150   -0.6408    1.2500 H   0  0
   -2.7945    3.1835    0.5758 H   0  0
   -1.1079    3.8015    0.5569 H   0  0
   -1.0640    3.6060   -1.9243 H   0  0
   -2.7510    2.9892   -1.9062 H   0  0
   -2.6943    5.4924   -0.4804 H   0  0
   -3.3221    7.1695   -0.3597 H   0  0
   -4.1564    9.5046   -0.3458 H   0  0
   -4.2188    9.5284   -4.6463 H   0  0
   -3.3663    7.2003   -4.6828 H   0  0
   -7.1501   10.2881   -4.2394 H   0  0
   -7.2166   12.0940   -4.2352 H   0  0
   -9.4682   11.7678   -3.7527 H   0  0
   -9.1768   10.0866   -3.0936 H   0  0
   -9.5137   11.3082   -1.0573 H   0  0
   -8.6976   12.8086   -1.7292 H   0  0
   -6.9149   11.8089   -0.4616 H   0  0
   -7.4403   10.1234   -0.8992 H   0  0
  1  2  1  0
  2  3  1  0
  2  4  1  0
  4  5  1  0
  5 13  1  0
  5  6  2  0
  6 10  1  0
  6  7  1  0
  7  8  2  0
  8  9  1  0
  9 10  1  0
  9 18  1  0
 10 11  2  0
 11 12  1  0
 12 13  2  0
 12 14  1  0
 14 15  1  0
 15 16  1  0
 15 17  1  0
 18 19  1  0
 19 20  1  0
 20 21  1  0
 21 22  2  0
 21 23  1  0
 23 28  2  0
 23 24  1  0
 24 25  2  0
 25 26  1  0
 26 27  2  0
 26 29  1  0
 27 28  1  0
 29 30  2  0
 29 31  2  0
 29 32  1  0
 32 36  1  0
 32 33  1  0
 33 34  1  0
 34 35  1  0
 35 36  1  0
  1 37  1  0
  1 38  1  0
  1 39  1  0
  2 40  1  0
  3 41  1  0
  3 42  1  0
  3 43  1  0
  4 44  1  0
  7 45  1  0
 15 46  1  0
 16 47  1  0
 16 48  1  0
 16 49  1  0
 17 50  1  0
 17 51  1  0
 17 52  1  0
 18 53  1  0
 18 54  1  0
 19 55  1  0
 19 56  1  0
 20 57  1  0
 24 58  1  0
 25 59  1  0
 27 60  1  0
 28 61  1  0
 33 62  1  0
 33 63  1  0
 34 64  1  0
 34 65  1  0
 35 66  1  0
 35 67  1  0
 36 68  1  0
 36 69  1  0
M  END
> <Name>
ZINC08796142

> <reference>
BDB50038593

> <quality>
0.643

> <status>
decoy

$$$$
ZINC10011598
  SciTegic06061311253D

 56 58  0  0  0  0            999 V2000
    4.5784   -0.0222    1.9833 C   0  0
    4.6980    1.3518    1.6091 O   0  0
    3.5586    1.9896    1.2289 C   0  0
    2.3565    1.3075    1.2173 C   0  0
    1.1862    1.9634    0.8261 C   0  0
    1.2357    3.3062    0.4426 C   0  0
    2.4395    3.9851    0.4615 C   0  0
    3.6042    3.3291    0.8513 C   0  0
    4.7873    3.9973    0.8636 O   0  0
    5.5609    3.9690   -0.3376 C   0  0
    2.4874    5.2936    0.0937 O   0  0
    1.2550    5.9039   -0.2946 C   0  0
   -0.0982    1.2377    0.8123 C   0  0
   -0.1391    0.0682    1.1414 O   0  0
   -1.2253    1.8699    0.4295 N   0  0
   -2.3977    1.2054    0.4116 C   0  0
   -2.4554   -0.4417    0.8750 S   0  0
   -3.5248    1.8376    0.0288 N   0  5
   -4.7248    1.1264   -0.0750 C   0  0
   -5.5437    1.3011   -1.1831 C   0  0
   -6.7253    0.5935   -1.2849 C   0  0
   -7.0990   -0.2796   -0.2798 C   0  0
   -6.2884   -0.4519    0.8273 C   0  0
   -5.1027    0.2484    0.9325 C   0  0
   -8.6109   -1.1750   -0.4102 S   0  0
   -8.9221   -1.2472   -1.7948 O   0  0
   -8.4678   -2.3338    0.3998 O   0  0
   -9.7905   -0.2491    0.2924 N   0  0
  -10.1585    1.0401   -0.2981 C   0  0
  -11.4687    1.5038    0.2847 C   0  0
  -11.6153    2.2637    1.3848 C   0  0
  -13.0039    2.4572    1.5670 C   0  0
  -13.6228    1.8039    0.5672 C   0  0
  -12.6878    1.2331   -0.2097 O   0  0
    4.1389   -0.5411    1.1187 H   0  0
    3.8475   -0.0565    2.8046 H   0  0
    5.5398   -0.4683    2.2776 H   0  0
    2.3211    0.2493    1.5157 H   0  0
    0.3174    3.8225    0.1260 H   0  0
    4.9169    4.3783   -1.1299 H   0  0
    5.7415    2.9079   -0.5642 H   0  0
    6.5027    4.5307   -0.2505 H   0  0
    0.5701    5.7876    0.5583 H   0  0
    0.8614    5.3031   -1.1277 H   0  0
    1.3739    6.9602   -0.5777 H   0  0
   -1.1906    2.8608    0.1507 H   0  0
   -5.2515    2.0023   -1.9787 H   0  0
   -7.3699    0.7246   -2.1665 H   0  0
   -6.5883   -1.1475    1.6250 H   0  0
   -4.4583    0.1109    1.8133 H   0  0
  -10.2654   -0.5796    1.1445 H   0  0
   -9.3766    1.7815   -0.0769 H   0  0
  -10.2614    0.9296   -1.3877 H   0  0
  -10.8094    2.6588    2.0207 H   0  0
  -13.4857    3.0317    2.3719 H   0  0
  -14.7103    1.7469    0.4122 H   0  0
  1  2  1  0
  2  3  1  0
  3  8  2  0
  3  4  1  0
  4  5  2  0
  5  6  1  0
  5 13  1  0
  6  7  2  0
  7  8  1  0
  7 11  1  0
  8  9  1  0
  9 10  1  0
 11 12  1  0
 13 14  2  0
 13 15  1  0
 15 16  1  0
 16 17  2  0
 16 18  1  0
 18 19  1  0
 19 24  2  0
 19 20  1  0
 20 21  2  0
 21 22  1  0
 22 23  2  0
 22 25  1  0
 23 24  1  0
 25 26  2  0
 25 27  2  0
 25 28  1  0
 28 29  1  0
 29 30  1  0
 30 34  1  0
 30 31  2  0
 31 32  1  0
 32 33  2  0
 33 34  1  0
  1 35  1  0
  1 36  1  0
  1 37  1  0
  4 38  1  0
  6 39  1  0
 10 40  1  0
 10 41  1  0
 10 42  1  0
 12 43  1  0
 12 44  1  0
 12 45  1  0
 15 46  1  0
 20 47  1  0
 21 48  1  0
 23 49  1  0
 24 50  1  0
 28 51  1  0
 29 52  1  0
 29 53  1  0
 31 54  1  0
 32 55  1  0
 33 56  1  0
M  CHG  1  18  -1
M  END
> <Name>
ZINC10011598

> <reference>
BDB50038593

> <quality>
0.640

> <status>
decoy

$$$$
ZINC29051676
  SciTegic06061311253D

 66 68  0  0  1  0            999 V2000
    2.3165    4.2260    0.0531 C   0  0
    0.9694    3.5010    0.0766 C   0  0
    1.2035    1.9891    0.0575 C   0  0
   -0.0547    1.3119    0.0794 O   0  0
   -0.0244   -0.0476    0.0663 C   0  0
    1.1894   -0.7148    0.0274 C   0  0
    1.2185   -2.0969    0.0195 C   0  0
    0.0381   -2.8163    0.0398 C   0  0
   -1.1764   -2.1568    0.0728 C   0  0
   -1.2125   -0.7717    0.0862 C   0  0
   -2.4065   -0.1214    0.1192 O   0  0
   -3.5850   -0.9294    0.1381 C   0  0
   -4.8208   -0.0281    0.1744 C   0  0
   -6.0825   -0.8931    0.1946 C   0  0
    0.0755   -4.3228    0.0252 C   0  0  2  0  0  0
    0.3701   -4.8393    1.4350 C   0  0
    1.1282   -4.7777   -0.8929 N   0  3
    0.8409   -6.1277   -1.3956 C   0  0
    1.9399   -6.5594   -2.3321 C   0  0
    2.8709   -5.8156   -2.5584 O   0  0
    1.8884   -7.7720   -2.9181 N   0  0
    2.8598   -8.1371   -3.8593 C   0  0
    4.1719   -7.7084   -3.7043 C   0  0
    5.1282   -8.0718   -4.6366 C   0  0
    4.7740   -8.8652   -5.7274 C   0  0
    3.4660   -9.2905   -5.8773 C   0  0
    2.5116   -8.9317   -4.9430 C   0  0
    1.1136   -9.3918   -5.1018 N   0  0
    0.8259  -10.1688   -5.9946 O   0  0
    0.2510   -8.9934   -4.3397 O   0  0
    5.7241   -9.2136   -6.6372 O   0  0
    6.7656   -8.2630   -6.8748 C   0  0
    7.2892   -7.7458   -5.5591 C   0  0
    8.4515   -7.4156   -5.4538 O   0  0
    6.4585   -7.6511   -4.4981 N   0  0
    2.8655    3.9522   -0.8599 H   0  0
    2.9057    3.9358    0.9355 H   0  0
    2.1489    5.3131    0.0668 H   0  0
    0.4212    3.7751    0.9900 H   0  0
    0.3801    3.7912   -0.8057 H   0  0
    1.7514    1.7143   -0.8559 H   0  0
    1.7918    1.6969    0.9399 H   0  0
    2.1298   -0.1447    0.0028 H   0  0
    2.1830   -2.6254   -0.0030 H   0  0
   -2.1141   -2.7316    0.0884 H   0  0
   -3.6150   -1.5556   -0.7658 H   0  0
   -3.5753   -1.5732    1.0300 H   0  0
   -4.7917    0.5981    1.0783 H   0  0
   -4.8328    0.6157   -0.7174 H   0  0
   -6.0727   -1.5368    1.0865 H   0  0
   -6.1131   -1.5199   -0.7089 H   0  0
   -6.9714   -0.2457    0.2207 H   0  0
   -0.8973   -4.7105   -0.3115 H   0  0
   -0.4178   -4.4995    2.1232 H   0  0
    1.3429   -4.4524    1.7726 H   0  0
    0.3975   -5.9389    1.4251 H   0  0
    1.1905   -4.1259   -1.6880 H   0  0
    2.0316   -4.7854   -0.3983 H   0  0
   -0.1182   -6.1232   -1.9343 H   0  0
    0.7835   -6.8293   -0.5504 H   0  0
    1.1348   -8.4303   -2.6740 H   0  0
    4.4500   -7.0823   -2.8437 H   0  0
    3.1853   -9.9137   -6.7392 H   0  0
    6.3694   -7.4241   -7.4657 H   0  0
    7.5834   -8.7465   -7.4293 H   0  0
    6.7973   -7.2755   -3.6008 H   0  0
  1  2  1  0
  2  3  1  0
  3  4  1  0
  4  5  1  0
  5 10  2  0
  5  6  1  0
  6  7  2  0
  7  8  1  0
  8  9  2  0
  8 15  1  0
  9 10  1  0
 10 11  1  0
 11 12  1  0
 12 13  1  0
 13 14  1  0
 15 16  1  0
 15 17  1  0
 17 18  1  0
 18 19  1  0
 19 20  2  0
 19 21  1  0
 21 22  1  0
 22 27  2  0
 22 23  1  0
 23 24  2  0
 24 35  1  0
 24 25  1  0
 25 26  2  0
 25 31  1  0
 26 27  1  0
 27 28  1  0
 28 29  2  0
 28 30  2  0
 31 32  1  0
 32 33  1  0
 33 34  2  0
 33 35  1  0
  1 36  1  0
  1 37  1  0
  1 38  1  0
  2 39  1  0
  2 40  1  0
  3 41  1  0
  3 42  1  0
  6 43  1  0
  7 44  1  0
  9 45  1  0
 12 46  1  0
 12 47  1  0
 13 48  1  0
 13 49  1  0
 14 50  1  0
 14 51  1  0
 14 52  1  0
 15 53  1  0
 16 54  1  0
 16 55  1  0
 16 56  1  0
 17 57  1  0
 17 58  1  0
 18 59  1  0
 18 60  1  0
 21 61  1  0
 23 62  1  0
 26 63  1  0
 32 64  1  0
 32 65  1  0
 35 66  1  0
M  CHG  1  17   1
M  END
> <Name>
ZINC29051676

> <reference>
BDB50038593

> <quality>
0.638

> <status>
decoy

$$$$
ZINC13739156
  SciTegic06061311253D

 60 61  0  0  0  0            999 V2000
    0.0582    1.7595    4.7287 C   0  0
   -1.4491    1.5386    4.5875 C   0  0  2  0  0  0
   -1.7482    0.0405    4.5963 C   0  0
   -1.1908   -0.6307    3.3754 C   0  0
   -0.9009    0.0551    2.2227 C   0  0
   -1.1324    1.5011    2.1494 C   0  0
   -0.6970    2.1608    1.2281 O   0  0
   -1.9338    2.1429    3.2627 C   0  0
   -0.3628   -0.6628    1.0565 C   0  0
    0.8346   -1.1563    1.0955 N   0  0
    1.7104   -0.8649    2.2331 C   0  0
    2.1160   -2.1741    2.9131 C   0  0
    4.2728   -1.3153    3.6026 C   0  0
    5.1249   -0.9518    4.8209 C   0  0
    4.0652   -2.7199    6.0896 C   0  0
    3.2130   -3.0833    4.8713 C   0  0
    6.2220   -1.8610    6.7791 C   0  0
    7.6216   -1.5119    6.2690 C   0  0
    8.5362   -1.2075    7.4572 C   0  0
    9.9358   -0.8584    6.9471 C   0  0
   11.0202   -0.4975    8.3558 S   0  0
   10.6104    0.7043    8.9936 O   0  0
   11.2482   -1.6782    9.1130 O   0  0
   -0.9622   -1.9530    3.4141 O   0  0
   -2.1759    2.2127    5.7529 C   0  0
    2.9821   -1.8627    4.0702 N   0  0
    5.3559   -2.1724    5.6220 N   0  0
   12.3703   -0.1672    7.7356 O   0  5
    0.2741    2.8381    4.7178 H   0  0
    0.5808    1.2732    3.8918 H   0  0
    0.4059    1.3265    5.6782 H   0  0
   -1.3022   -0.4130    5.4937 H   0  0
   -2.8370   -0.1127    4.6276 H   0  0
   -1.7623    3.2294    3.2642 H   0  0
   -3.0029    1.9243    3.1239 H   0  0
   -0.9770   -0.7805    0.1516 H   0  0
    2.6110   -0.3423    1.8783 H   0  0
    1.1771   -0.2280    2.9542 H   0  0
    1.2160   -2.7035    3.2592 H   0  0
    2.6674   -2.8049    2.2004 H   0  0
    4.7957   -2.0714    2.9985 H   0  0
    4.0928   -0.4148    2.9971 H   0  0
    6.0899   -0.5429    4.4867 H   0  0
    4.5962   -0.2055    5.4320 H   0  0
    4.2456   -3.6199    6.6958 H   0  0
    3.5417   -1.9636    6.6929 H   0  0
    3.7426   -3.8294    4.2607 H   0  0
    2.2478   -3.4925    5.2045 H   0  0
    6.2795   -2.7371    7.4418 H   0  0
    5.8056   -1.0048    7.3300 H   0  0
    8.0283   -2.3626    5.7024 H   0  0
    7.5652   -0.6291    5.6151 H   0  0
    8.1303   -0.3566    8.0240 H   0  0
    8.5948   -2.0896    8.1117 H   0  0
   10.3425   -1.7090    6.3806 H   0  0
    9.8794    0.0244    6.2932 H   0  0
   -1.8312   -2.3610    3.6558 H   0  0
   -1.9618    3.2916    5.7446 H   0  0
   -1.8297    1.7783    6.7023 H   0  0
   -3.2597    2.0540    5.6516 H   0  0
  1  2  1  0
  2  8  1  0
  2  3  1  0
  2 25  1  0
  3  4  1  0
  4  5  2  0
  4 24  1  0
  5  6  1  0
  5  9  1  0
  6  7  2  0
  6  8  1  0
  9 10  2  0
 10 11  1  0
 11 12  1  0
 12 26  1  0
 13 14  1  0
 13 26  1  0
 14 27  1  0
 15 16  1  0
 15 27  1  0
 16 26  1  0
 17 18  1  0
 17 27  1  0
 18 19  1  0
 19 20  1  0
 20 21  1  0
 21 22  2  0
 21 23  2  0
 21 28  1  0
  1 29  1  0
  1 30  1  0
  1 31  1  0
  3 32  1  0
  3 33  1  0
  8 34  1  0
  8 35  1  0
  9 36  1  0
 11 37  1  0
 11 38  1  0
 12 39  1  0
 12 40  1  0
 13 41  1  0
 13 42  1  0
 14 43  1  0
 14 44  1  0
 15 45  1  0
 15 46  1  0
 16 47  1  0
 16 48  1  0
 17 49  1  0
 17 50  1  0
 18 51  1  0
 18 52  1  0
 19 53  1  0
 19 54  1  0
 20 55  1  0
 20 56  1  0
 24 57  1  0
 25 58  1  0
 25 59  1  0
 25 60  1  0
M  CHG  1  28  -1
M  END
> <Name>
ZINC13739156

> <reference>
BDB50021152

> <quality>
0.912

> <status>
decoy

$$$$
ZINC26335687
  SciTegic06061311253D

 62 63  0  0  1  0            999 V2000
    1.2123    2.1513   -1.9672 C   0  0
    1.0536    2.0043   -0.4526 C   0  0
   -0.1788    1.2683   -0.1598 N   0  0
   -1.4396    1.9925    0.0192 C   0  0
   -1.6150    2.3539    1.4955 C   0  0
   -0.1537   -0.0756   -0.0606 C   0  0
   -1.1739   -0.6850    0.1818 O   0  0
    1.1422   -0.8211   -0.2509 C   0  0
    0.9055   -2.2624   -0.0940 N   0  3
    0.4211   -2.5749    1.2681 C   0  0
   -0.3918   -3.8436    1.2076 C   0  0
    0.4611   -5.0908    1.4892 C   0  0
    1.7854   -5.0315    0.8297 N   0  0
    1.7438   -4.5156   -0.5202 C   0  0
    2.0294   -3.0008   -0.4837 C   0  0
    2.4543   -6.3386    0.8734 C   0  0
    1.6515   -7.3403    0.0840 C   0  0
    0.6798   -6.9783   -0.5447 O   0  0
    2.0136   -8.6385    0.0766 N   0  0
    1.2736   -9.5619   -0.6511 C   0  0
    0.2128   -9.1491   -1.3268 N   0  0
   -0.5159  -10.0034   -2.0377 C   0  0
   -0.1571  -11.3466   -2.0567 C   0  0
    0.9601  -11.7437   -1.3306 C   0  0
    1.6443  -10.8326   -0.6464 N   0  0
    1.3465  -13.0427   -1.3210 O   0  0
    2.5051  -13.3692   -0.5508 C   0  0
   -1.5976   -9.5719   -2.7311 O   0  0
   -1.8995   -8.1769   -2.6601 C   0  0
    0.3517    2.7015   -2.3754 H   0  0
    1.2625    1.1547   -2.4301 H   0  0
    2.1375    2.7039   -2.1877 H   0  0
    1.9144    1.4537   -0.0453 H   0  0
    1.0034    3.0009    0.0104 H   0  0
   -1.4229    2.9126   -0.5835 H   0  0
   -2.2776    1.3575   -0.3041 H   0  0
   -0.7783    2.9899    1.8203 H   0  0
   -1.6320    1.4348    2.0996 H   0  0
   -2.5616    2.8977    1.6306 H   0  0
    1.8728   -0.4864    0.5002 H   0  0
    1.5352   -0.6222   -1.2589 H   0  0
    0.1491   -2.5506   -0.7309 H   0  0
   -0.2087   -1.7512    1.6352 H   0  0
    1.2791   -2.7188    1.9412 H   0  0
   -1.2022   -3.7873    1.9492 H   0  0
   -0.8436   -3.9353    0.2089 H   0  0
    0.6064   -5.1893    2.5751 H   0  0
   -0.0758   -5.9825    1.1334 H   0  0
    2.5078   -5.0190   -1.1309 H   0  0
    0.7476   -4.6912   -0.9524 H   0  0
    2.3470   -2.6698   -1.4835 H   0  0
    2.8502   -2.8060    0.2223 H   0  0
    2.5352   -6.6756    1.9174 H   0  0
    3.4604   -6.2506    0.4375 H   0  0
    2.8390   -8.9460    0.6105 H   0  0
   -0.7433  -12.0778   -2.6326 H   0  0
    2.2950  -13.0418    0.4781 H   0  0
    3.3228  -12.7466   -0.9428 H   0  0
    2.7554  -14.4395   -0.5921 H   0  0
   -1.0024   -7.6478   -3.0140 H   0  0
   -2.0307   -7.9426   -1.5934 H   0  0
   -2.7888   -7.9038   -3.2471 H   0  0
  1  2  1  0
  2  3  1  0
  3  4  1  0
  3  6  1  0
  4  5  1  0
  6  7  2  0
  6  8  1  0
  8  9  1  0
  9 15  1  0
  9 10  1  0
 10 11  1  0
 11 12  1  0
 12 13  1  0
 13 14  1  0
 13 16  1  0
 14 15  1  0
 16 17  1  0
 17 18  2  0
 17 19  1  0
 19 20  1  0
 20 25  2  0
 20 21  1  0
 21 22  2  0
 22 23  1  0
 22 28  1  0
 23 24  2  0
 24 25  1  0
 24 26  1  0
 26 27  1  0
 28 29  1  0
  1 30  1  0
  1 31  1  0
  1 32  1  0
  2 33  1  0
  2 34  1  0
  4 35  1  0
  4 36  1  0
  5 37  1  0
  5 38  1  0
  5 39  1  0
  8 40  1  0
  8 41  1  0
  9 42  1  0
 10 43  1  0
 10 44  1  0
 11 45  1  0
 11 46  1  0
 12 47  1  0
 12 48  1  0
 14 49  1  0
 14 50  1  0
 15 51  1  0
 15 52  1  0
 16 53  1  0
 16 54  1  0
 19 55  1  0
 23 56  1  0
 27 57  1  0
 27 58  1  0
 27 59  1  0
 29 60  1  0
 29 61  1  0
 29 62  1  0
M  CHG  1   9   1
M  END
> <Name>
ZINC26335687

> <reference>
BDB50021152

> <quality>
0.870

> <status>
decoy

$$$$
ZINC06975424
  SciTegic06061311253D

 44 45  0  0  0  0            999 V2000
   -0.7087   12.7485    8.4692 C   0  0
   -1.3911   12.7282    7.1256 C   0  0
   -1.3441   13.7040    6.4069 O   0  0
   -2.0535   11.6258    6.7228 N   0  0
   -2.7168   11.6060    5.4168 C   0  0
   -3.3791   10.2683    5.2099 C   0  0
   -4.6439    9.8914    5.5420 C   0  0
   -5.0568    8.6148    5.2653 C   0  0
   -4.1362    7.7720    4.6505 C   0  0
   -2.7117    8.8354    4.4979 S   0  0
   -4.2877    6.4245    4.2558 C   0  0
   -5.3410    5.8507    4.4461 O   0  0
   -3.1423    5.6985    3.5986 C   0  0
   -3.5447    4.3378    3.2905 O   0  0
   -2.6285    3.5487    2.6953 C   0  0
   -1.5236    3.9859    2.4407 O   0  0
   -2.9665    2.1565    2.3533 C   0  0
   -4.2361    1.6489    2.6445 C   0  0
   -4.5455    0.3461    2.3225 C   0  0
   -3.6044   -0.4667    1.7098 C   0  0
   -2.3488    0.0205    1.4109 C   0  0
   -2.0155    1.3305    1.7331 C   0  0
   -0.7508    1.8216    1.4382 N   0  5
    0.0243    1.3370    0.0574 S   0  0
    0.0621   -0.0810    0.1413 O   0  0
    1.2269    2.0935    0.0321 O   0  0
   -1.0675    1.8539   -1.2960 C   0  0
   -1.1421   13.6055    9.0056 H   0  0
    0.3451   12.9844    8.2596 H   0  0
   -0.8219   11.8073    9.0272 H   0  0
   -2.0934   10.7972    7.3333 H   0  0
   -3.4767   12.4005    5.3792 H   0  0
   -1.9728   11.7725    4.6239 H   0  0
   -5.3271   10.6039    6.0273 H   0  0
   -6.0708    8.2714    5.5179 H   0  0
   -2.8640    6.2173    2.6694 H   0  0
   -2.2793    5.6794    4.2804 H   0  0
   -4.9871    2.2893    3.1302 H   0  0
   -5.5449   -0.0517    2.5528 H   0  0
   -3.8605   -1.5070    1.4603 H   0  0
   -1.6108   -0.6287    0.9170 H   0  0
   -1.1940    2.9463   -1.3198 H   0  0
   -2.0464    1.3553   -1.2399 H   0  0
   -0.5944    1.5529   -2.2424 H   0  0
  1  2  1  0
  2  3  2  0
  2  4  1  0
  4  5  1  0
  5  6  1  0
  6 10  1  0
  6  7  2  0
  7  8  1  0
  8  9  2  0
  9 10  1  0
  9 11  1  0
 11 12  2  0
 11 13  1  0
 13 14  1  0
 14 15  1  0
 15 16  2  0
 15 17  1  0
 17 22  2  0
 17 18  1  0
 18 19  2  0
 19 20  1  0
 20 21  2  0
 21 22  1  0
 22 23  1  0
 23 24  1  0
 24 25  2  0
 24 26  2  0
 24 27  1  0
  1 28  1  0
  1 29  1  0
  1 30  1  0
  4 31  1  0
  5 32  1  0
  5 33  1  0
  7 34  1  0
  8 35  1  0
 13 36  1  0
 13 37  1  0
 18 38  1  0
 19 39  1  0
 20 40  1  0
 21 41  1  0
 27 42  1  0
 27 43  1  0
 27 44  1  0
M  CHG  1  23  -1
M  END
> <Name>
ZINC06975424

> <reference>
BDB50021152

> <quality>
0.844

> <status>
decoy

$$$$
ZINC22251197
  SciTegic06061311253D

 52 54  0  0  1  0            999 V2000
    0.6025    3.6931    1.2271 C   0  0
   -0.8100    3.1071    1.2741 C   0  0
   -0.7288    1.5792    1.2668 C   0  0  2  0  0  0
   -2.1123    0.9679    1.3676 C   0  0
   -3.0287    1.0970    0.5845 O   0  0
   -2.1119    0.2518    2.5093 N   0  0
   -0.9328    0.3250    3.1373 C   0  0
   -0.6904   -0.2375    4.1871 O   0  0
   -0.0455    1.0908    2.4770 N   0  5
   -3.2609   -0.5117    3.0023 C   0  0
   -4.1063    0.3679    3.8870 C   0  0
   -3.7823    1.5149    4.0853 O   0  0
   -5.2193   -0.1229    4.4546 O   0  0
   -5.9845    0.7811    5.2945 C   0  0
   -7.1899    0.0601    5.8406 C   0  0
   -7.3848   -1.1012    5.5505 O   0  0
   -8.0514    0.7059    6.6514 N   0  0
   -9.2232    0.0050    7.1823 C   0  0
  -10.0175    0.9433    8.0540 C   0  0
  -11.0545    1.7814    7.6299 C   0  0
  -11.4987    2.4416    8.6690 N   0  0
  -10.7577    2.0445    9.7896 N   0  0
   -9.8576    1.1196    9.3861 C   0  0
  -10.9238    2.5180   11.0986 C   0  0
  -10.1207    2.0316   12.1213 C   0  0
  -10.2839    2.5032   13.4093 C   0  0
  -11.2527    3.4514   13.6823 C   0  0
  -12.0573    3.9341   12.6666 C   0  0
  -11.8957    3.4699   11.3758 C   0  0
   -0.0127    1.0858    0.0080 C   0  0
    1.1093    3.3580    0.3101 H   0  0
    1.1712    3.3527    2.1050 H   0  0
    0.5449    4.7916    1.2323 H   0  0
   -1.3788    3.4475    0.3963 H   0  0
   -1.3159    3.4425    2.1915 H   0  0
   -2.9063   -1.3783    3.5795 H   0  0
   -3.8627   -0.8602    2.1500 H   0  0
   -6.3138    1.6458    4.6996 H   0  0
   -5.3562    1.1274    6.1283 H   0  0
   -7.8859    1.6922    6.8978 H   0  0
   -9.8522   -0.3413    6.3490 H   0  0
   -8.8958   -0.8595    7.7785 H   0  0
  -11.4315    1.8701    6.6004 H   0  0
   -9.1267    0.6033   10.0258 H   0  0
   -9.3552    1.2715   11.9061 H   0  0
   -9.6426    2.1241   14.2186 H   0  0
  -11.3836    3.8224   14.7095 H   0  0
  -12.8269    4.6886   12.8868 H   0  0
  -12.5363    3.8540   10.5683 H   0  0
    1.0030    1.5075   -0.0159 H   0  0
   -0.5673    1.4282   -0.8781 H   0  0
    0.0406   -0.0129    0.0120 H   0  0
  1  2  1  0
  2  3  1  0
  3  9  1  0
  3  4  1  0
  3 30  1  0
  4  5  2  0
  4  6  1  0
  6  7  1  0
  6 10  1  0
  7  8  2  0
  7  9  1  0
 10 11  1  0
 11 12  2  0
 11 13  1  0
 13 14  1  0
 14 15  1  0
 15 16  2  0
 15 17  1  0
 17 18  1  0
 18 19  1  0
 19 23  2  0
 19 20  1  0
 20 21  2  0
 21 22  1  0
 22 23  1  0
 22 24  1  0
 24 29  2  0
 24 25  1  0
 25 26  2  0
 26 27  1  0
 27 28  2  0
 28 29  1  0
  1 31  1  0
  1 32  1  0
  1 33  1  0
  2 34  1  0
  2 35  1  0
 10 36  1  0
 10 37  1  0
 14 38  1  0
 14 39  1  0
 17 40  1  0
 18 41  1  0
 18 42  1  0
 20 43  1  0
 23 44  1  0
 25 45  1  0
 26 46  1  0
 27 47  1  0
 28 48  1  0
 29 49  1  0
 30 50  1  0
 30 51  1  0
 30 52  1  0
M  CHG  1   9  -1
M  END
> <Name>
ZINC22251197

> <reference>
BDB50021152

> <quality>
0.814

> <status>
decoy

$$$$
ZINC24901400
  SciTegic06061311253D

 55 57  0  0  1  0            999 V2000
    2.1343   10.2458   -9.9089 C   0  0
    1.9744    9.2650   -8.8820 O   0  0
    1.2769    8.0910   -9.3031 C   0  0
    1.1648    7.1159   -8.1294 C   0  0
    0.3300    7.7077   -7.0809 N   0  0
    0.0905    7.0242   -5.9443 C   0  0
    0.5659    5.9193   -5.7895 O   0  0
   -0.7683    7.6329   -4.8658 C   0  0
   -0.8756    6.6992   -3.7420 N   0  0
   -1.8647    5.7553   -3.6227 C   0  0
   -2.7535    5.4953   -4.4052 O   0  0
   -1.5976    5.0933   -2.2904 C   0  0  1  0  0  0
   -1.3719    3.5874   -2.4596 C   0  0
   -0.7726    3.0615   -1.2234 N   0  3
    0.5677    3.6042   -0.9744 C   0  0
    0.4811    5.1235   -0.7529 C   0  0
   -0.3043    5.6725   -1.8619 N   0  0
   -0.0290    6.6719   -2.7007 C   0  0
    0.8798    7.4631   -2.5416 O   0  0
   -0.7527    1.5927   -1.2315 C   0  0
   -0.0422    1.0853    0.0249 C   0  0
   -0.7633    1.5087    1.1837 O   0  0
   -0.2620    1.1387    2.3920 C   0  0
    0.8965    0.3790    2.4597 C   0  0
    1.4072    0.0073    3.6884 C   0  0
    0.7576    0.3843    4.8515 C   0  0
   -0.4016    1.1385    4.7852 C   0  0
   -0.9118    1.5156    3.5580 C   0  0
    1.2550    0.0154    6.0522 F   0  0
    1.1302   10.5210  -10.2638 H   0  0
    2.6787    9.7714  -10.7387 H   0  0
    2.6752   11.1306   -9.5421 H   0  0
    1.8273    7.6114  -10.1259 H   0  0
    0.2693    8.3667   -9.6476 H   0  0
    0.7077    6.1769   -8.4750 H   0  0
    2.1671    6.9091   -7.7260 H   0  0
   -0.0738    8.6461   -7.2124 H   0  0
   -1.7715    7.8393   -5.2672 H   0  0
   -0.3116    8.5718   -4.5195 H   0  0
   -2.4350    5.2458   -1.5936 H   0  0
   -2.3348    3.0885   -2.6435 H   0  0
   -0.6906    3.4082   -3.3044 H   0  0
   -1.3704    3.3750   -0.4454 H   0  0
    0.9948    3.1282   -0.0794 H   0  0
    1.2139    3.3976   -1.8403 H   0  0
    1.4908    5.5598   -0.7595 H   0  0
   -0.0246    5.3324    0.2014 H   0  0
   -0.2167    1.2371   -2.1238 H   0  0
   -1.7846    1.2120   -1.2476 H   0  0
    0.0023   -0.0136    0.0026 H   0  0
    0.9788    1.4930    0.0600 H   0  0
    1.4084    0.0726    1.5355 H   0  0
    2.3303   -0.5884    3.7426 H   0  0
   -0.9166    1.4376    5.7101 H   0  0
   -1.8330    2.1145    3.5056 H   0  0
  1  2  1  0
  2  3  1  0
  3  4  1  0
  4  5  1  0
  5  6  1  0
  6  7  2  0
  6  8  1  0
  8  9  1  0
  9 18  1  0
  9 10  1  0
 10 11  2  0
 10 12  1  0
 12 17  1  0
 12 13  1  0
 13 14  1  0
 14 15  1  0
 14 20  1  0
 15 16  1  0
 16 17  1  0
 17 18  1  0
 18 19  2  0
 20 21  1  0
 21 22  1  0
 22 23  1  0
 23 28  2  0
 23 24  1  0
 24 25  2  0
 25 26  1  0
 26 27  2  0
 26 29  1  0
 27 28  1  0
  1 30  1  0
  1 31  1  0
  1 32  1  0
  3 33  1  0
  3 34  1  0
  4 35  1  0
  4 36  1  0
  5 37  1  0
  8 38  1  0
  8 39  1  0
 12 40  1  0
 13 41  1  0
 13 42  1  0
 14 43  1  0
 15 44  1  0
 15 45  1  0
 16 46  1  0
 16 47  1  0
 20 48  1  0
 20 49  1  0
 21 50  1  0
 21 51  1  0
 24 52  1  0
 25 53  1  0
 27 54  1  0
 28 55  1  0
M  CHG  1  14   1
M  END
> <Name>
ZINC24901400

> <reference>
BDB50021152

> <quality>
0.813

> <status>
decoy

$$$$
ZINC30599368
  SciTegic06061311253D

 42 43  0  0  0  0            999 V2000
   -8.3719   14.3570    0.1470 C   0  0
   -8.8040   12.8892    0.1443 C   0  0
   -7.6275   12.0384    0.1300 O   0  0
   -7.8346   10.7122    0.1259 C   0  0
   -8.9616   10.2767    0.1340 O   0  0
   -6.6614    9.7664    0.1113 C   0  0
   -7.2640    8.0554    0.1089 S   0  0
   -5.7932    7.0854    0.0915 C   0  0
   -4.5325    7.4774    0.0817 N   0  0
   -3.5253    6.5404    0.0679 N   0  0
   -3.8234    5.2561    0.0646 C   0  0
   -5.6089    5.3088    0.0742 S   0  0
   -2.9740    4.1539    0.0511 N   0  5
   -1.6382    4.3327    0.0396 C   0  0
   -1.1748    5.4582    0.0410 O   0  0
   -0.7431    3.1714    0.0254 C   0  0
    0.6354    3.2048    0.0127 C   0  0
    1.0785    1.8785    0.0018 C   0  0
   -0.0126    1.0758    0.0080 C   0  0
   -1.1259    1.8491    0.0168 N   0  0
    2.7580    1.3460   -0.0165 S   0  0
    3.5266    2.4073    0.5331 O   0  0
    2.7737    0.0332    0.5270 O   0  0
    3.2101    1.2067   -1.6035 N   0  0
    3.7936    2.3544   -2.3023 C   0  0
    3.0267   -0.0643   -2.3085 C   0  0
   -7.7790   14.5674   -0.7554 H   0  0
   -7.7630   14.5594    1.0405 H   0  0
   -9.2628   15.0022    0.1578 H   0  0
   -9.3965   12.6796    1.0471 H   0  0
   -9.4129   12.6867   -0.7491 H   0  0
   -6.0586    9.9435   -0.7917 H   0  0
   -6.0420    9.9349    1.0046 H   0  0
    1.2674    4.1051    0.0114 H   0  0
    0.0023   -0.0241    0.0062 H   0  0
   -2.0966    1.5047    0.0170 H   0  0
    4.6570    2.6426   -1.6846 H   0  0
    3.0473    3.1544   -2.1881 H   0  0
    4.0637    2.1707   -3.3527 H   0  0
    1.9556   -0.2886   -2.1969 H   0  0
    3.5654   -0.8002   -1.6934 H   0  0
    3.3549   -0.0650   -3.3584 H   0  0
  1  2  1  0
  2  3  1  0
  3  4  1  0
  4  5  2  0
  4  6  1  0
  6  7  1  0
  7  8  1  0
  8 12  1  0
  8  9  2  0
  9 10  1  0
 10 11  2  0
 11 12  1  0
 11 13  1  0
 13 14  1  0
 14 15  2  0
 14 16  1  0
 16 20  1  0
 16 17  2  0
 17 18  1  0
 18 19  2  0
 18 21  1  0
 19 20  1  0
 21 22  2  0
 21 23  2  0
 21 24  1  0
 24 25  1  0
 24 26  1  0
  1 27  1  0
  1 28  1  0
  1 29  1  0
  2 30  1  0
  2 31  1  0
  6 32  1  0
  6 33  1  0
 17 34  1  0
 19 35  1  0
 20 36  1  0
 25 37  1  0
 25 38  1  0
 25 39  1  0
 26 40  1  0
 26 41  1  0
 26 42  1  0
M  CHG  1  13  -1
M  END
> <Name>
ZINC30599368

> <reference>
BDB50021152

> <quality>
0.809

> <status>
decoy

$$$$
ZINC08623092
  SciTegic06061311253D

 58 61  0  0  1  0            999 V2000
   -5.8508    0.5993    2.9174 C   0  0
   -5.1787    0.9081    4.2304 C   0  0
   -5.6661    1.8685    4.9875 N   0  0
   -5.0965    2.1682    6.1561 C   0  0
   -3.9695    1.4427    6.5644 C   0  0
   -3.4975    0.4449    5.7336 C   0  0
   -4.1168    0.2121    4.5852 N   0  0
   -2.2887   -0.3651    6.1256 C   0  0  1  0  0  0
   -1.6118   -0.9180    4.8683 C   0  0
    0.5568   -0.8632    5.9444 C   0  0
   -0.0576   -0.3087    7.2328 C   0  0
   -1.2911    0.5290    6.8728 C   0  0  1  0  0  0
   -0.8557    1.6641    5.9375 C   0  0
   -0.2188    1.0554    4.6849 C   0  0  2  0  0  0
   -1.0116    1.4851    3.4489 C   0  0
   -0.4788    0.8046    2.2661 N   0  0
   -1.0253    1.0309    1.0550 C   0  0
   -1.9581    1.7981    0.9445 O   0  0
   -0.4772    0.3308   -0.1617 C   0  0
   -1.2700    0.7606   -1.3977 C   0  0
   -0.7136    0.0498   -2.6331 C   0  0
   -1.4945    0.4731   -3.8505 C   0  0
   -2.4028    1.2623   -3.7413 O   0  0
   -5.6434    3.2451    7.0034 C   0  0
   -6.7244    4.0193    6.7128 C   0  0
   -6.8892    4.9068    7.7927 C   0  0
   -5.9061    4.6408    8.6769 C   0  0
   -5.1561    3.6371    8.1970 O   0  0
   -0.2231   -0.4210    4.7687 N   0  3
   -1.1809   -0.0266   -5.0562 O   0  5
   -6.1158   -0.4673    2.9644 H   0  0
   -5.0699    0.7139    2.1512 H   0  0
   -6.7253    1.2358    2.7171 H   0  0
   -3.4735    1.6619    7.5214 H   0  0
   -2.6058   -1.1946    6.7747 H   0  0
   -2.1762   -0.5997    3.9794 H   0  0
   -1.6022   -2.0171    4.9128 H   0  0
    1.5921   -0.5036    5.8501 H   0  0
    0.5610   -1.9624    5.9851 H   0  0
    0.6783    0.3244    7.7502 H   0  0
   -0.3567   -1.1414    7.8864 H   0  0
   -1.7530    0.9396    7.7828 H   0  0
   -0.1214    2.3034    6.4495 H   0  0
   -1.7333    2.2619    5.6503 H   0  0
    0.8198    1.4102    4.6109 H   0  0
   -2.0701    1.2161    3.5803 H   0  0
   -0.9236    2.5734    3.3156 H   0  0
    0.3135    0.1532    2.3600 H   0  0
    0.5812    0.5996   -0.2939 H   0  0
   -0.5655   -0.7578   -0.0306 H   0  0
   -2.3285    0.4917   -1.2663 H   0  0
   -1.1819    1.8489   -1.5310 H   0  0
   -0.8019   -1.0388   -2.5020 H   0  0
    0.3448    0.3186   -2.7653 H   0  0
   -7.3486    3.9624    5.8088 H   0  0
   -7.6720    5.6727    7.8960 H   0  0
   -5.7458    5.1606    9.6330 H   0  0
    0.2094   -0.8050    3.9164 H   0  0
  1  2  1  0
  2  7  2  0
  2  3  1  0
  3  4  2  0
  4  5  1  0
  4 24  1  0
  5  6  2  0
  6  7  1  0
  6  8  1  0
  8 12  1  0
  8  9  1  0
  9 29  1  0
 10 11  1  0
 10 29  1  0
 11 12  1  0
 12 13  1  0
 13 14  1  0
 14 15  1  0
 14 29  1  0
 15 16  1  0
 16 17  1  0
 17 18  2  0
 17 19  1  0
 19 20  1  0
 20 21  1  0
 21 22  1  0
 22 23  2  0
 22 30  1  0
 24 28  1  0
 24 25  2  0
 25 26  1  0
 26 27  2  0
 27 28  1  0
  1 31  1  0
  1 32  1  0
  1 33  1  0
  5 34  1  0
  8 35  1  0
  9 36  1  0
  9 37  1  0
 10 38  1  0
 10 39  1  0
 11 40  1  0
 11 41  1  0
 12 42  1  0
 13 43  1  0
 13 44  1  0
 14 45  1  0
 15 46  1  0
 15 47  1  0
 16 48  1  0
 19 49  1  0
 19 50  1  0
 20 51  1  0
 20 52  1  0
 21 53  1  0
 21 54  1  0
 25 55  1  0
 26 56  1  0
 27 57  1  0
 29 58  1  0
M  CHG  2  29   1  30  -1
M  END
> <Name>
ZINC08623092

> <reference>
BDB50021152

> <quality>
0.798

> <status>
decoy

$$$$
ZINC23743288
  SciTegic06061311253D

 49 51  0  0  0  0            999 V2000
   -5.5450   -4.0190   -3.9129 C   0  0
   -6.3096   -3.4958   -2.8871 C   0  0
   -6.1690   -2.1869   -2.5643 C   0  0
   -4.9305   -1.6493   -3.7324 S   0  0
   -4.6773   -3.2077   -4.5658 C   0  0
   -6.9989   -1.2556   -1.3198 S   0  0
   -8.1722   -1.9830   -0.9829 O   0  0
   -7.0414    0.0885   -1.7789 O   0  0
   -6.0331   -1.2660    0.0253 N   0  5
   -4.7823   -0.6598   -0.0123 C   0  0
   -4.6817    0.7282    0.0238 C   0  0
   -3.4452    1.3311   -0.0128 C   0  0
   -2.2894    0.5482   -0.0867 C   0  0
   -2.3940   -0.8452   -0.1286 C   0  0
   -3.6331   -1.4423   -0.0854 C   0  0
   -0.9623    1.1913   -0.1266 C   0  0
   -0.8730    2.4036   -0.0952 O   0  0
    0.1511    0.4352   -0.1978 N   0  0
    1.4687    1.0740   -0.2435 C   0  0
    2.5540   -0.0011   -0.3284 C   0  0
    3.9301    0.6661   -0.3762 C   0  0
    4.9721   -0.3661   -0.4577 N   0  0
    5.0205   -1.1645    0.7758 C   0  0
    6.0760   -2.2632    0.6251 C   0  0
    7.3383   -1.6655    0.3172 O   0  0
    7.3275   -0.8810   -0.8785 C   0  0
    6.2846    0.2316   -0.7431 C   0  0
   -5.6393   -5.0780   -4.1952 H   0  0
   -7.0215   -4.1321   -2.3409 H   0  0
   -3.9944   -3.4473   -5.3942 H   0  0
   -5.5916    1.3437    0.0816 H   0  0
   -3.3664    2.4279    0.0161 H   0  0
   -1.4868   -1.4637   -0.1960 H   0  0
   -3.7157   -2.5390   -0.1086 H   0  0
    0.0756   -0.5918   -0.2201 H   0  0
    1.5296    1.7263   -1.1271 H   0  0
    1.6183    1.6739    0.6663 H   0  0
    2.4939   -0.6535    0.5552 H   0  0
    2.4066   -0.6014   -1.2383 H   0  0
    4.0797    1.2661    0.5335 H   0  0
    3.9910    1.3184   -1.2598 H   0  0
    4.0372   -1.6233    0.9564 H   0  0
    5.2854   -0.5154    1.6234 H   0  0
    6.1568   -2.8265    1.5665 H   0  0
    5.7849   -2.9444   -0.1880 H   0  0
    8.3210   -0.4352   -1.0345 H   0  0
    7.0718   -1.5204   -1.7363 H   0  0
    6.2324    0.8014   -1.6826 H   0  0
    6.5702    0.9034    0.0798 H   0  0
  1  5  2  0
  1  2  1  0
  2  3  2  0
  3  4  1  0
  3  6  1  0
  4  5  1  0
  6  7  2  0
  6  8  2  0
  6  9  1  0
  9 10  1  0
 10 15  2  0
 10 11  1  0
 11 12  2  0
 12 13  1  0
 13 14  2  0
 13 16  1  0
 14 15  1  0
 16 17  2  0
 16 18  1  0
 18 19  1  0
 19 20  1  0
 20 21  1  0
 21 22  1  0
 22 27  1  0
 22 23  1  0
 23 24  1  0
 24 25  1  0
 25 26  1  0
 26 27  1  0
  1 28  1  0
  2 29  1  0
  5 30  1  0
 11 31  1  0
 12 32  1  0
 14 33  1  0
 15 34  1  0
 18 35  1  0
 19 36  1  0
 19 37  1  0
 20 38  1  0
 20 39  1  0
 21 40  1  0
 21 41  1  0
 23 42  1  0
 23 43  1  0
 24 44  1  0
 24 45  1  0
 26 46  1  0
 26 47  1  0
 27 48  1  0
 27 49  1  0
M  CHG  1   9  -1
M  END
> <Name>
ZINC23743288

> <reference>
BDB50021152

> <quality>
0.797

> <status>
decoy

$$$$
ZINC29913826
  SciTegic06061311253D

 58 60  0  0  1  0            999 V2000
   -3.9488    8.5098   -0.3764 C   0  0
   -3.1272    8.1048    0.8491 C   0  0
   -3.7624    6.9547    1.5062 N   0  3
   -3.5079    5.7153    0.7597 C   0  0
   -2.0235    5.4624    0.6971 C   0  0
   -1.2606    6.1733    1.3165 O   0  0
   -1.5439    4.4464   -0.0473 N   0  0
   -0.1755    4.1463   -0.0243 C   0  0
    0.2483    2.8276   -0.1232 C   0  0
    1.5967    2.5322   -0.0961 C   0  0
    2.5287    3.5535    0.0197 C   0  0
    2.1063    4.8713    0.1132 C   0  0
    0.7576    5.1677    0.0910 C   0  0
    3.2908    6.1675    0.2596 S   0  0
    4.2611    5.9475   -0.7549 O   0  0
    2.5560    7.3796    0.3610 O   0  0
    4.0658    5.9613    1.7084 N   0  0
    3.5600    6.5973    2.9353 C   0  0
    3.4590    5.5198    4.0269 C   0  0
    4.7132    4.8421    4.1343 O   0  0
    5.1019    4.1394    2.9516 C   0  0
    5.2839    5.1416    1.8060 C   0  0
    3.8567    3.2623    0.0410 O   0  0
    4.2204    1.8841   -0.0599 C   0  0
    5.7443    1.7544   -0.0186 C   0  0
   -3.3147    6.8312    2.8998 C   0  0  2  0  0  0
   -2.7979    5.4658    3.3575 C   0  0
   -4.1604    5.9698    3.8398 C   0  0
   -4.9667    8.7840   -0.0624 H   0  0
   -3.9978    7.6667   -1.0812 H   0  0
   -3.4737    9.3710   -0.8689 H   0  0
   -3.0782    8.9478    1.5540 H   0  0
   -2.1096    7.8305    0.5341 H   0  0
   -4.7796    7.1165    1.5137 H   0  0
   -3.9059    5.8125   -0.2612 H   0  0
   -4.0016    4.8735    1.2672 H   0  0
   -2.1833    3.8906   -0.6331 H   0  0
   -0.4902    2.0185   -0.2231 H   0  0
    1.9322    1.4870   -0.1663 H   0  0
    0.4228    6.2129    0.1647 H   0  0
    2.5648    7.0268    2.7478 H   0  0
    4.2563    7.3854    3.2580 H   0  0
    3.2140    5.9933    4.9891 H   0  0
    2.6734    4.7975    3.7601 H   0  0
    6.0505    3.6126    3.1321 H   0  0
    4.3219    3.4122    2.6819 H   0  0
    5.4405    4.5983    0.8624 H   0  0
    6.1494    5.7873    2.0155 H   0  0
    3.8437    1.4728   -1.0080 H   0  0
    3.7826    1.3267    0.7813 H   0  0
    6.1226    2.1643    0.9295 H   0  0
    6.1836    2.3113   -0.8593 H   0  0
    6.0249    0.6936   -0.0962 H   0  0
   -2.9250    7.8595    2.9262 H   0  0
   -2.0317    5.5658    4.1404 H   0  0
   -2.9057    4.7084    2.5671 H   0  0
   -4.9846    5.4767    3.3036 H   0  0
   -4.1105    6.3356    4.8760 H   0  0
  1  2  1  0
  2  3  1  0
  3  4  1  0
  3 26  1  0
  4  5  1  0
  5  6  2  0
  5  7  1  0
  7  8  1  0
  8 13  2  0
  8  9  1  0
  9 10  2  0
 10 11  1  0
 11 12  2  0
 11 23  1  0
 12 13  1  0
 12 14  1  0
 14 15  2  0
 14 16  2  0
 14 17  1  0
 17 22  1  0
 17 18  1  0
 18 19  1  0
 19 20  1  0
 20 21  1  0
 21 22  1  0
 23 24  1  0
 24 25  1  0
 26 28  1  0
 26 27  1  0
 27 28  1  0
  1 29  1  0
  1 30  1  0
  1 31  1  0
  2 32  1  0
  2 33  1  0
  3 34  1  0
  4 35  1  0
  4 36  1  0
  7 37  1  0
  9 38  1  0
 10 39  1  0
 13 40  1  0
 18 41  1  0
 18 42  1  0
 19 43  1  0
 19 44  1  0
 21 45  1  0
 21 46  1  0
 22 47  1  0
 22 48  1  0
 24 49  1  0
 24 50  1  0
 25 51  1  0
 25 52  1  0
 25 53  1  0
 26 54  1  0
 27 55  1  0
 27 56  1  0
 28 57  1  0
 28 58  1  0
M  CHG  1   3   1
M  END
> <Name>
ZINC29913826

> <reference>
BDB50021152

> <quality>
0.796

> <status>
decoy

$$$$
ZINC13127439
  SciTegic06061311253D

 53 55  0  0  1  0            999 V2000
   -1.9095    3.3154    0.4975 C   0  0
   -1.5979    2.3407    1.6349 C   0  0
   -0.2582    2.5484    2.0866 O   0  0
    0.1798    1.7588    3.0995 C   0  0
   -0.6689    0.8053    3.6516 C   0  0
   -0.2280   -0.0012    4.6757 C   0  0
    1.0740    0.1468    5.1691 C   0  0
    1.9228    1.1119    4.6134 C   0  0
    1.4740    1.9098    3.5860 C   0  0
    1.5485   -0.7085    6.2678 C   0  0
    2.7599   -1.3639    6.1593 C   0  0
    3.6506   -1.4294    4.9403 C   0  0  1  0  0  0
    4.8180   -2.2320    5.3164 N   0  0
    4.6819   -2.6293    6.5927 C   0  0
    5.4819   -3.3136    7.1975 O   0  0
    3.4078   -2.1075    7.1566 C   0  0
    2.9985   -2.2934    8.2885 O   0  0
    5.9473   -2.5543    4.4405 C   0  0
    7.0049   -1.4538    4.5460 C   0  0
    7.5642   -1.4551    5.8611 O   0  0
    8.4902   -0.3933    6.0999 C   0  0
    9.1106   -0.5604    7.4885 C   0  0
    9.9285   -1.7320    7.5069 O   0  0
    2.9160   -2.0843    3.7990 C   0  0
    2.8753   -1.4614    2.5657 C   0  0
    2.2020   -2.0751    1.5208 C   0  0
    1.5823   -3.2925    1.7596 C   0  0
    1.6606   -3.8520    3.0207 C   0  0
    2.3150   -3.2423    3.9898 N   0  0
    0.8001   -0.8530    7.3823 O   0  5
   -1.2117    3.1437   -0.3353 H   0  0
   -1.8011    4.3487    0.8587 H   0  0
   -2.9407    3.1560    0.1493 H   0  0
   -2.2959    2.5133    2.4674 H   0  0
   -1.7062    1.3073    1.2737 H   0  0
   -1.6944    0.6957    3.2690 H   0  0
   -0.8972   -0.7608    5.1060 H   0  0
    2.9466    1.2320    4.9974 H   0  0
    2.1399    2.6683    3.1488 H   0  0
    3.9511   -0.4233    4.6124 H   0  0
    5.5970   -2.6266    3.4003 H   0  0
    6.3868   -3.5150    4.7470 H   0  0
    7.8008   -1.6382    3.8094 H   0  0
    6.5402   -0.4769    4.3469 H   0  0
    7.9648    0.5717    6.0476 H   0  0
    9.2838   -0.4205    5.3387 H   0  0
    9.7268    0.3200    7.7233 H   0  0
    8.3121   -0.6597    8.2385 H   0  0
   10.6484   -1.6437    6.8330 H   0  0
    3.3709   -0.4910    2.4153 H   0  0
    2.1603   -1.6076    0.5260 H   0  0
    1.0353   -3.8063    0.9553 H   0  0
    1.1714   -4.8172    3.2185 H   0  0
  1  2  1  0
  2  3  1  0
  3  4  1  0
  4  9  2  0
  4  5  1  0
  5  6  2  0
  6  7  1  0
  7  8  2  0
  7 10  1  0
  8  9  1  0
 10 11  2  0
 10 30  1  0
 11 16  1  0
 11 12  1  0
 12 13  1  0
 12 24  1  0
 13 14  1  0
 13 18  1  0
 14 15  2  0
 14 16  1  0
 16 17  2  0
 18 19  1  0
 19 20  1  0
 20 21  1  0
 21 22  1  0
 22 23  1  0
 24 29  2  0
 24 25  1  0
 25 26  2  0
 26 27  1  0
 27 28  2  0
 28 29  1  0
  1 31  1  0
  1 32  1  0
  1 33  1  0
  2 34  1  0
  2 35  1  0
  5 36  1  0
  6 37  1  0
  8 38  1  0
  9 39  1  0
 12 40  1  0
 18 41  1  0
 18 42  1  0
 19 43  1  0
 19 44  1  0
 21 45  1  0
 21 46  1  0
 22 47  1  0
 22 48  1  0
 23 49  1  0
 25 50  1  0
 26 51  1  0
 27 52  1  0
 28 53  1  0
M  CHG  1  30  -1
M  END
> <Name>
ZINC13127439

> <reference>
BDB50021152

> <quality>
0.774

> <status>
decoy

$$$$
ZINC24799871
  SciTegic06061311253D

 52 53  0  0  1  0            999 V2000
    7.0874    4.0742   -8.8509 C   0  0
    7.0013    3.6017   -7.3982 C   0  0
    7.4407    4.7333   -6.4670 C   0  0  2  0  0  0
    7.2704    4.3351   -5.0143 C   0  0
    7.8171    3.4198   -4.4370 O   0  0
    6.3835    5.2089   -4.4986 N   0  0
    5.9796    6.0992   -5.4120 C   0  0
    5.1844    6.9892   -5.1824 O   0  0
    6.5521    5.8991   -6.6128 N   0  5
    5.9433    5.1910   -3.1686 N   0  0
    4.7082    4.7394   -2.8736 C   0  0
    3.9778    4.3486   -3.7594 O   0  0
    4.2347    4.7201   -1.4431 C   0  0
    2.8665    4.1883   -1.3872 N   0  0
    1.9222    5.0935   -2.0557 C   0  0
    2.4575    3.9319    0.0002 C   0  0
    1.1599    3.1657    0.0080 C   0  0
    1.1751    1.7833    0.0004 C   0  0
   -0.0126    1.0758    0.0080 C   0  0
   -1.2218    1.7523    0.0173 C   0  0
   -1.2371    3.1437    0.0293 C   0  0
   -0.0431    3.8467    0.0222 C   0  0
   -2.4214    3.8121    0.0433 O   0  0
   -2.3605    5.2398    0.0499 C   0  0
   -2.3911    1.0579    0.0196 O   0  0
   -2.2988   -0.3681    0.0119 C   0  0  1  0  0  0
   -1.6162   -0.7851   -1.1359 F   0  0
   -1.6050   -0.7967    1.1486 F   0  0
    8.8930    5.1252   -6.7466 C   0  0
    8.1241    4.3585   -9.0843 H   0  0
    6.4284    4.9431   -8.9946 H   0  0
    6.7716    3.2610   -9.5210 H   0  0
    7.6603    2.7328   -7.2544 H   0  0
    5.9643    3.3180   -7.1656 H   0  0
    6.5636    5.5230   -2.4163 H   0  0
    4.9007    4.0809   -0.8449 H   0  0
    4.2466    5.7427   -1.0379 H   0  0
    2.2271    5.2130   -3.1058 H   0  0
    1.9559    6.0736   -1.5574 H   0  0
    0.9029    4.6830   -2.0061 H   0  0
    3.2342    3.3417    0.5085 H   0  0
    2.3208    4.8883    0.5261 H   0  0
    2.1344    1.2451   -0.0117 H   0  0
    0.0023   -0.0241    0.0067 H   0  0
   -0.0524    4.9466    0.0279 H   0  0
   -1.7868    5.5290   -0.8430 H   0  0
   -1.7708    5.5201    0.9352 H   0  0
   -3.3558    5.7081    0.0612 H   0  0
   -3.3101   -0.8009    0.0147 H   0  0
    8.9809    5.4552   -7.7922 H   0  0
    9.5382    4.2484   -6.5887 H   0  0
    9.1993    5.9388   -6.0726 H   0  0
  1  2  1  0
  2  3  1  0
  3  9  1  0
  3  4  1  0
  3 29  1  0
  4  5  2  0
  4  6  1  0
  6  7  1  0
  6 10  1  0
  7  8  2  0
  7  9  1  0
 10 11  1  0
 11 12  2  0
 11 13  1  0
 13 14  1  0
 14 15  1  0
 14 16  1  0
 16 17  1  0
 17 22  2  0
 17 18  1  0
 18 19  2  0
 19 20  1  0
 20 21  2  0
 20 25  1  0
 21 22  1  0
 21 23  1  0
 23 24  1  0
 25 26  1  0
 26 27  1  0
 26 28  1  0
  1 30  1  0
  1 31  1  0
  1 32  1  0
  2 33  1  0
  2 34  1  0
 10 35  1  0
 13 36  1  0
 13 37  1  0
 15 38  1  0
 15 39  1  0
 15 40  1  0
 16 41  1  0
 16 42  1  0
 18 43  1  0
 19 44  1  0
 22 45  1  0
 24 46  1  0
 24 47  1  0
 24 48  1  0
 26 49  1  0
 29 50  1  0
 29 51  1  0
 29 52  1  0
M  CHG  1   9  -1
M  END
> <Name>
ZINC24799871

> <reference>
BDB50021152

> <quality>
0.766

> <status>
decoy

$$$$
ZINC22420929
  SciTegic06061311253D

 48 50  0  0  0  0            999 V2000
   -0.9640  -14.2486    5.4472 C   0  0
    0.0786  -13.9300    4.4069 C   0  0
    0.7808  -14.9425    3.7559 C   0  0
    1.8309  -13.9741    2.6818 S   0  0
    1.2706  -12.4050    3.1706 C   0  0
    0.3593  -12.6961    4.0876 N   0  0
    1.6775  -11.1628    2.7203 N   0  0
    1.1179  -10.0460    3.2264 C   0  0
    0.2576  -10.1307    4.0767 O   0  0
    1.5615   -8.6920    2.7355 C   0  0
    0.6310   -7.4023    3.5999 S   0  0
    1.3309   -5.9678    2.8535 C   0  0
    2.2653   -5.9468    1.9336 N   0  0
    2.5264   -4.7267    1.6201 N   0  0
    1.7833   -3.9268    2.3272 C   0  0
    1.0063   -4.6890    3.1218 O   0  0
    1.7861   -2.4211    2.2644 C   0  0
    0.7759   -1.9525    1.2152 C   0  0
    0.7786   -0.4848    1.1541 N   0  0
    0.0021   -0.0041    0.0020 C   0  0
   -0.0187    1.5267    0.0104 C   0  0
    1.3249    2.0168    0.0002 O   0  0
    2.1096    1.5686    1.1087 C   0  0
    2.1519    0.0382    1.1114 C   0  0
    0.6885  -16.3407    3.9033 C   0  0
   -0.0975  -16.8172    4.6978 O   0  0
    1.5648  -17.2452    3.0756 C   0  0
   -1.8783  -13.7530    5.0887 H   0  0
   -0.6349  -13.7100    6.3481 H   0  0
   -1.1062  -15.3249    5.6243 H   0  0
    2.4083  -11.0908    1.9980 H   0  0
    2.6358   -8.5637    2.9340 H   0  0
    1.3765   -8.6141    1.6540 H   0  0
    1.5092   -2.0125    3.2474 H   0  0
    2.7904   -2.0663    1.9895 H   0  0
   -0.2293   -2.3055    1.4891 H   0  0
    1.0525   -2.3604    0.2318 H   0  0
   -1.0278   -0.3849    0.0672 H   0  0
    0.4680   -0.3593   -0.9290 H   0  0
   -0.5490    1.8917   -0.8815 H   0  0
   -0.5320    1.8830    0.9157 H   0  0
    3.1323    1.9634    1.0184 H   0  0
    1.6588    1.9243    2.0469 H   0  0
    2.7059   -0.3117    1.9949 H   0  0
    2.6528   -0.3161    0.1984 H   0  0
    2.5934  -16.9206    3.2915 H   0  0
    1.3512  -16.9714    2.0319 H   0  0
    1.4111  -18.3169    3.2704 H   0  0
  1  2  1  0
  2  6  1  0
  2  3  2  0
  3  4  1  0
  3 25  1  0
  4  5  1  0
  5  6  2  0
  5  7  1  0
  7  8  1  0
  8  9  2  0
  8 10  1  0
 10 11  1  0
 11 12  1  0
 12 16  1  0
 12 13  2  0
 13 14  1  0
 14 15  2  0
 15 16  1  0
 15 17  1  0
 17 18  1  0
 18 19  1  0
 19 24  1  0
 19 20  1  0
 20 21  1  0
 21 22  1  0
 22 23  1  0
 23 24  1  0
 25 26  2  0
 25 27  1  0
  1 28  1  0
  1 29  1  0
  1 30  1  0
  7 31  1  0
 10 32  1  0
 10 33  1  0
 17 34  1  0
 17 35  1  0
 18 36  1  0
 18 37  1  0
 20 38  1  0
 20 39  1  0
 21 40  1  0
 21 41  1  0
 23 42  1  0
 23 43  1  0
 24 44  1  0
 24 45  1  0
 27 46  1  0
 27 47  1  0
 27 48  1  0
M  END
> <Name>
ZINC22420929

> <reference>
BDB50021152

> <quality>
0.759

> <status>
decoy

$$$$
ZINC23974977
  SciTegic06061311253D

 50 51  0  0  1  0            999 V2000
   -2.9672  -11.2969   12.8938 C   0  0
   -1.9554  -10.2825   12.3568 C   0  0
   -2.7478   -8.6622   12.2056 S   0  0
   -1.3961   -7.7173   11.5853 C   0  0
   -0.1535   -8.0875   11.3080 N   0  0
    0.7012   -7.2731   10.8641 N   0  0
    0.4106   -5.9998   10.6479 C   0  0
   -1.3103   -5.9846   11.1420 S   0  0
    1.2111   -4.9702   10.1689 N   0  0
    2.4977   -5.2108    9.8474 C   0  0
    2.9571   -6.3272    9.9763 O   0  5
    3.3576   -4.1047    9.3328 C   0  0
    2.8984   -2.9887    9.2039 O   0  0
    4.6442   -4.3452    9.0113 N   0  0
    5.4883   -3.2596    8.5062 C   0  0
    6.9238   -3.7632    8.3436 C   0  0  2  0  0  0
    7.4765   -4.1494    9.6913 C   0  0
    7.9522   -3.1738   10.5483 C   0  0
    8.4590   -3.5248   11.7857 C   0  0
    8.4913   -4.8517   12.1692 C   0  0
    8.0151   -5.8322   11.3113 C   0  0
    7.5021   -5.4769   10.0720 C   0  0
    8.0453   -7.1380   11.6864 O   0  0
    8.5811   -7.4296   12.9787 C   0  0
    7.7528   -2.6996    7.7609 N   0  3
    9.1293   -3.1644    7.5436 C   0  0
    7.1636   -2.1971    6.5125 C   0  0
   -3.8185  -11.3693   12.2010 H   0  0
   -3.3256  -10.9714   13.8815 H   0  0
   -2.4863  -12.2819   12.9860 H   0  0
   -1.1046  -10.2106   13.0503 H   0  0
   -1.5970  -10.6081   11.3691 H   0  0
    5.0340   -5.2923    9.1207 H   0  0
    5.1065   -2.9211    7.5317 H   0  0
    5.4732   -2.4206    9.2175 H   0  0
    6.9317   -4.6399    7.6792 H   0  0
    7.9273   -2.1168   10.2449 H   0  0
    8.8369   -2.7469   12.4655 H   0  0
    8.8943   -5.1304   13.1540 H   0  0
    7.1161   -6.2517    9.3933 H   0  0
    7.9806   -6.8550   13.6993 H   0  0
    9.6025   -7.0214   12.9893 H   0  0
    8.5721   -8.5049   13.2103 H   0  0
    7.7845   -1.9193    8.4325 H   0  0
    9.1094   -4.0287    6.8635 H   0  0
    9.5559   -3.4755    8.5086 H   0  0
    9.7378   -2.3585    7.1074 H   0  0
    6.1589   -1.8038    6.7267 H   0  0
    7.0795   -3.0298    5.7987 H   0  0
    7.7943   -1.4021    6.0880 H   0  0
  1  2  1  0
  2  3  1  0
  3  4  1  0
  4  8  1  0
  4  5  2  0
  5  6  1  0
  6  7  2  0
  7  8  1  0
  7  9  1  0
  9 10  2  0
 10 11  1  0
 10 12  1  0
 12 13  2  0
 12 14  1  0
 14 15  1  0
 15 16  1  0
 16 17  1  0
 16 25  1  0
 17 22  2  0
 17 18  1  0
 18 19  2  0
 19 20  1  0
 20 21  2  0
 21 22  1  0
 21 23  1  0
 23 24  1  0
 25 26  1  0
 25 27  1  0
  1 28  1  0
  1 29  1  0
  1 30  1  0
  2 31  1  0
  2 32  1  0
 14 33  1  0
 15 34  1  0
 15 35  1  0
 16 36  1  0
 18 37  1  0
 19 38  1  0
 20 39  1  0
 22 40  1  0
 24 41  1  0
 24 42  1  0
 24 43  1  0
 25 44  1  0
 26 45  1  0
 26 46  1  0
 26 47  1  0
 27 48  1  0
 27 49  1  0
 27 50  1  0
M  CHG  2  11  -1  25   1
M  END
> <Name>
ZINC23974977

> <reference>
BDB50021152

> <quality>
0.755

> <status>
decoy

$$$$
ZINC16981255
  SciTegic06061311253D

 44 46  0  0  0  0            999 V2000
   -2.4861    0.8897    0.5231 C   0  0
   -3.6133    1.6733    0.6601 C   0  0
   -3.6384    2.9604    0.1257 C   0  0
   -2.5064    3.4592   -0.5499 C   0  0
   -1.3751    2.6626   -0.6770 C   0  0
   -1.3655    1.3804   -0.1382 C   0  0
   -0.2296    0.5815   -0.2666 N   0  0
    0.9961    1.1393   -0.2129 C   0  0
    1.1110    2.3432   -0.1218 O   0  0
    2.2239    0.2671   -0.2659 C   0  0
    3.4757    1.1433   -0.1881 C   0  0
    4.7222    0.2577   -0.2420 C   0  0
    5.9741    1.1339   -0.1642 C   0  0
    7.1676    0.2860   -0.2158 N   0  0
    7.8693   -0.1851    0.8539 C   0  0
    8.8719   -0.9071    0.4446 N   0  0
    8.8772   -0.9450   -0.9093 C   0  0
    7.7808   -0.1846   -1.3493 C   0  0
    7.5649   -0.0576   -2.6547 N   0  0
    8.3589   -0.6431   -3.5265 C   0  0
    9.3979   -1.3713   -3.1616 N   0  0
    9.6962   -1.5508   -1.8780 C   0  0
   -2.5226    4.8234   -1.1201 C   0  0
   -3.5475    5.4748   -1.1074 O   0  0
   -4.8454    3.7978    0.2671 C   0  0
   -4.7601    4.9099    0.7485 O   0  0
   11.0858   -2.5244   -1.4029 S   0  0
   -1.4005    5.3437   -1.6538 O   0  5
   -6.0420    3.3288   -0.1377 O   0  5
   -2.4737   -0.1285    0.9391 H   0  0
   -4.4932    1.2819    1.1917 H   0  0
   -0.4882    3.0455   -1.2031 H   0  0
   -0.3274   -0.4348   -0.4025 H   0  0
    2.2136   -0.4328    0.5827 H   0  0
    2.2320   -0.2997   -1.2086 H   0  0
    3.4869    1.8432   -1.0366 H   0  0
    3.4700    1.7100    0.7547 H   0  0
    4.7119   -0.4422    0.6065 H   0  0
    4.7302   -0.3090   -1.1847 H   0  0
    5.9683    1.7006    0.7786 H   0  0
    5.9853    1.8338   -1.0127 H   0  0
    7.6243    0.0154    1.9074 H   0  0
    8.1487   -0.5210   -4.5993 H   0  0
   10.5725   -3.4914   -0.5793 H   0  0
  1  6  2  0
  1  2  1  0
  2  3  2  0
  3  4  1  0
  3 25  1  0
  4  5  2  0
  4 23  1  0
  5  6  1  0
  6  7  1  0
  7  8  1  0
  8  9  2  0
  8 10  1  0
 10 11  1  0
 11 12  1  0
 12 13  1  0
 13 14  1  0
 14 18  1  0
 14 15  1  0
 15 16  2  0
 16 17  1  0
 17 22  2  0
 17 18  1  0
 18 19  2  0
 19 20  1  0
 20 21  2  0
 21 22  1  0
 22 27  1  0
 23 24  2  0
 23 28  1  0
 25 26  2  0
 25 29  1  0
  1 30  1  0
  2 31  1  0
  5 32  1  0
  7 33  1  0
 10 34  1  0
 10 35  1  0
 11 36  1  0
 11 37  1  0
 12 38  1  0
 12 39  1  0
 13 40  1  0
 13 41  1  0
 15 42  1  0
 20 43  1  0
 27 44  1  0
M  CHG  2  28  -1  29  -1
M  END
> <Name>
ZINC16981255

> <reference>
BDB50021152

> <quality>
0.742

> <status>
decoy

$$$$
ZINC14868913
  SciTegic06061311253D

 42 43  0  0  0  0            999 V2000
    3.4882    5.4954    5.8229 C   0  0
    3.5503    4.6772    4.6250 O   0  0
    2.5402    4.8007    3.7497 C   0  0
    1.6342    5.5671    3.9769 O   0  0
    2.5363    3.9835    2.4835 C   0  0
    1.3370    4.2979    1.7031 N   0  0
    1.2409    3.8439    0.1134 S   0  0
    2.4511    4.2628   -0.5024 O   0  0
   -0.0350    4.2618   -0.3519 O   0  0
    1.2392    2.0824    0.0739 C   0  0
    0.0422    1.3922    0.1308 C   0  0
    0.0373    0.0115    0.0996 C   0  0
    1.2365   -0.6839    0.0109 C   0  0
    2.4371    0.0125   -0.0462 C   0  0
    2.4348    1.3932   -0.0145 C   0  0
    1.2351   -2.0803   -0.0214 N   0  0
    2.1626   -2.8838   -1.1334 S   0  0
    3.4809   -2.3676   -1.0116 O   0  0
    1.8689   -4.2661   -0.9843 O   0  0
    1.5838   -2.4153   -2.7304 C   0  0
    0.5136   -3.0835   -3.2983 C   0  0
    0.0523   -2.7188   -4.5461 C   0  0
    0.6748   -1.6797   -5.2407 C   0  0
    1.7577   -1.0132   -4.6639 C   0  0
    2.2053   -1.3848   -3.4131 C   0  0
    0.2044   -1.2990   -6.5386 C   0  0
   -0.1687   -0.9970   -7.5682 N   0  0
    2.5401    5.2444    6.3210 H   0  0
    3.4252    6.5394    5.4823 H   0  0
    4.3496    5.3377    6.4885 H   0  0
    2.5379    2.9130    2.7366 H   0  0
    3.4317    4.2215    1.8906 H   0  0
    0.5535    4.8013    2.1432 H   0  0
   -0.9071    1.9435    0.2010 H   0  0
   -0.9152   -0.5369    0.1449 H   0  0
    3.3885   -0.5351   -0.1166 H   0  0
    3.3851    1.9453   -0.0596 H   0  0
    0.6572   -2.6103    0.6464 H   0  0
    0.0295   -3.9074   -2.7535 H   0  0
   -0.8039   -3.2453   -4.9929 H   0  0
    2.2527   -0.1937   -5.2056 H   0  0
    3.0583   -0.8606   -2.9574 H   0  0
  1  2  1  0
  2  3  1  0
  3  4  2  0
  3  5  1  0
  5  6  1  0
  6  7  1  0
  7  8  2  0
  7  9  2  0
  7 10  1  0
 10 15  2  0
 10 11  1  0
 11 12  2  0
 12 13  1  0
 13 14  2  0
 13 16  1  0
 14 15  1  0
 16 17  1  0
 17 18  2  0
 17 19  2  0
 17 20  1  0
 20 25  2  0
 20 21  1  0
 21 22  2  0
 22 23  1  0
 23 24  2  0
 23 26  1  0
 24 25  1  0
 26 27  3  0
  1 28  1  0
  1 29  1  0
  1 30  1  0
  5 31  1  0
  5 32  1  0
  6 33  1  0
 11 34  1  0
 12 35  1  0
 14 36  1  0
 15 37  1  0
 16 38  1  0
 21 39  1  0
 22 40  1  0
 24 41  1  0
 25 42  1  0
M  END
> <Name>
ZINC14868913

> <reference>
BDB50021152

> <quality>
0.741

> <status>
decoy

$$$$
ZINC22718719
  SciTegic06061311253D

 54 56  0  0  1  0            999 V2000
  -11.0219    3.1275    2.3380 C   0  0
  -10.4148    2.4277    1.1495 C   0  0
  -11.2058    2.0963    0.0648 C   0  0
  -10.6524    1.4537   -1.0274 C   0  0
   -9.3071    1.1412   -1.0381 C   0  0
   -8.5102    1.4730    0.0494 C   0  0
   -9.0698    2.1135    1.1467 C   0  0
   -7.1448    1.1569    0.0417 N   0  0
   -6.6376   -0.1127    0.0321 C   0  0
   -5.2957   -0.0512    0.0204 C   0  0
   -4.9454    1.3757    0.0330 C   0  0
   -6.1460    2.0609    0.0424 C   0  0
   -6.3093    3.5590    0.0522 C   0  0
   -3.6001    1.9537    0.0297 C   0  0
   -3.4574    3.1588    0.0356 O   0  0
   -2.3926    1.0520    0.0191 C   0  0
   -1.1857    1.8593    0.0178 O   0  0
   -0.0143    1.2041    0.0087 C   0  0
    0.0021   -0.0041    0.0020 O   0  0
    1.2804    1.9752    0.0004 C   0  0
    2.4566    0.9969   -0.0160 C   0  0
    3.7711    1.7799   -0.0244 C   0  0  1  0  0  0
    4.9551    0.8349    0.0303 C   0  0
    5.2250    0.0496    0.9136 O   0  0
    5.6448    1.0488   -1.1076 N   0  0
    5.0672    1.9878   -1.8657 C   0  0
    5.5049    2.3531   -2.9390 O   0  0
    3.9459    2.4856   -1.3056 N   0  5
   -7.4540   -1.3794    0.0285 C   0  0
  -11.5180    1.0943   -2.2075 C   0  0
  -10.4315    4.0475    2.4606 H   0  0
  -10.7963    2.4793    3.1976 H   0  0
  -12.0983    3.3288    2.2336 H   0  0
  -12.2774    2.3444    0.0708 H   0  0
   -8.8675    0.6300   -1.9072 H   0  0
   -8.4426    2.3705    2.0131 H   0  0
   -4.5973   -0.9009    0.0045 H   0  0
   -6.9445    3.7268    0.9344 H   0  0
   -6.9529    3.7374   -0.8219 H   0  0
   -5.3811    4.1493    0.0513 H   0  0
   -2.4044    0.4126    0.9141 H   0  0
   -2.4122    0.4217   -0.8822 H   0  0
    1.3219    2.6127   -0.8951 H   0  0
    1.3399    2.6038    0.9011 H   0  0
    2.4159    0.3593    0.8795 H   0  0
    2.3995    0.3681   -0.9168 H   0  0
    3.7289    2.4625    0.8372 H   0  0
    6.5098    0.5509   -1.3622 H   0  0
   -8.1075   -1.2459   -0.8462 H   0  0
   -8.0996   -1.2560    0.9105 H   0  0
   -6.8864   -2.3216    0.0205 H   0  0
  -11.9683    2.0441   -2.5318 H   0  0
  -12.3271    0.4762   -1.7911 H   0  0
  -10.9756    0.5869   -3.0189 H   0  0
  1  2  1  0
  2  7  2  0
  2  3  1  0
  3  4  2  0
  4  5  1  0
  4 30  1  0
  5  6  2  0
  6  7  1  0
  6  8  1  0
  8 12  1  0
  8  9  1  0
  9 10  2  0
  9 29  1  0
 10 11  1  0
 11 12  2  0
 11 14  1  0
 12 13  1  0
 14 15  2  0
 14 16  1  0
 16 17  1  0
 17 18  1  0
 18 19  2  0
 18 20  1  0
 20 21  1  0
 21 22  1  0
 22 28  1  0
 22 23  1  0
 23 24  2  0
 23 25  1  0
 25 26  1  0
 26 27  2  0
 26 28  1  0
  1 31  1  0
  1 32  1  0
  1 33  1  0
  3 34  1  0
  5 35  1  0
  7 36  1  0
 10 37  1  0
 13 38  1  0
 13 39  1  0
 13 40  1  0
 16 41  1  0
 16 42  1  0
 20 43  1  0
 20 44  1  0
 21 45  1  0
 21 46  1  0
 22 47  1  0
 25 48  1  0
 29 49  1  0
 29 50  1  0
 29 51  1  0
 30 52  1  0
 30 53  1  0
 30 54  1  0
M  CHG  1  28  -1
M  END
> <Name>
ZINC22718719

> <reference>
BDB50021152

> <quality>
0.737

> <status>
decoy

$$$$
ZINC25682620
  SciTegic06061311253D

 52 54  0  0  1  0            999 V2000
    2.3493    4.3619    1.2533 C   0  0
    1.4544    4.3761    0.0124 C   0  0  1  0  0  0
    2.3260    4.3765   -1.2450 C   0  0
    0.5993    3.1865    0.0135 N   0  0
   -0.7533    3.1786    0.0263 C   0  0
   -1.1565    1.8786    0.0171 C   0  0
   -0.0126    1.0758    0.0080 C   0  0
    1.0377    1.8563    0.0021 N   0  0
   -1.5839    4.2989    0.0396 N   0  0
   -2.9228    4.1451    0.0516 C   0  0
   -3.4054    3.0324    0.0510 O   0  0
   -3.8202    5.3557    0.0660 C   0  0  2  0  0  0
   -3.6217    6.1222    1.3751 C   0  0
   -5.2050    4.9328   -0.0421 O   0  0
   -6.0581    5.7814   -0.6479 C   0  0
   -5.6561    6.8454   -1.0742 O   0  0
   -7.4825    5.4179   -0.7938 C   0  0
   -7.9468    4.1931   -0.3102 C   0  0
   -9.2790    3.8619   -0.4459 C   0  0
  -10.1525    4.7359   -1.0686 C   0  0
   -9.6981    5.9491   -1.5545 C   0  0
   -8.3694    6.2951   -1.4212 C   0  0
  -11.6054    4.3648   -1.2179 C   0  0
  -11.8002    3.6536   -2.4838 N   0  0
  -12.1008    4.2553   -3.6517 C   0  0
  -12.2551    5.4420   -3.8457 O   0  0
  -12.2039    3.1397   -4.6728 C   0  0
  -11.9309    1.9243   -3.8864 N   0  5
  -11.7073    2.3261   -2.6221 C   0  0
  -11.4498    1.5680   -1.7078 O   0  0
    2.9917    5.2548    1.2536 H   0  0
    2.9775    3.4590    1.2433 H   0  0
    1.7232    4.3616    2.1578 H   0  0
    0.8264    5.2792    0.0235 H   0  0
    2.9542    3.4736   -1.2572 H   0  0
    2.9684    5.2695   -1.2469 H   0  0
    1.6832    4.3867   -2.1376 H   0  0
   -2.1975    1.5231    0.0169 H   0  0
    0.0023   -0.0241    0.0061 H   0  0
   -1.1741    5.2439    0.0403 H   0  0
   -3.5688    6.0086   -0.7828 H   0  0
   -2.5728    6.4432    1.4578 H   0  0
   -3.8731    5.4702    2.2247 H   0  0
   -4.2765    7.0060    1.3862 H   0  0
   -7.2519    3.4939    0.1779 H   0  0
   -9.6478    2.9008   -0.0582 H   0  0
  -10.3980    6.6393   -2.0482 H   0  0
   -8.0094    7.2598   -1.8083 H   0  0
  -12.2204    5.2768   -1.2122 H   0  0
  -11.9056    3.7148   -0.3828 H   0  0
  -13.2203    3.1015   -5.0916 H   0  0
  -11.4397    3.2670   -5.4537 H   0  0
  1  2  1  0
  2  3  1  0
  2  4  1  0
  4  8  1  0
  4  5  1  0
  5  6  2  0
  5  9  1  0
  6  7  1  0
  7  8  2  0
  9 10  1  0
 10 11  2  0
 10 12  1  0
 12 13  1  0
 12 14  1  0
 14 15  1  0
 15 16  2  0
 15 17  1  0
 17 22  2  0
 17 18  1  0
 18 19  2  0
 19 20  1  0
 20 21  2  0
 20 23  1  0
 21 22  1  0
 23 24  1  0
 24 29  1  0
 24 25  1  0
 25 26  2  0
 25 27  1  0
 27 28  1  0
 28 29  1  0
 29 30  2  0
  1 31  1  0
  1 32  1  0
  1 33  1  0
  2 34  1  0
  3 35  1  0
  3 36  1  0
  3 37  1  0
  6 38  1  0
  7 39  1  0
  9 40  1  0
 12 41  1  0
 13 42  1  0
 13 43  1  0
 13 44  1  0
 18 45  1  0
 19 46  1  0
 21 47  1  0
 22 48  1  0
 23 49  1  0
 23 50  1  0
 27 51  1  0
 27 52  1  0
M  CHG  1  28  -1
M  END
> <Name>
ZINC25682620

> <reference>
BDB50021152

> <quality>
0.721

> <status>
decoy

$$$$
ZINC22933274
  SciTegic06061311253D

 53 55  0  0  1  0            999 V2000
   -2.4899   -1.4471   -1.9101 C   0  0
   -3.0584   -0.1293   -2.2041 N   0  0
   -3.6694    0.2503   -3.3687 C   0  0
   -4.0401    1.5356   -3.2132 C   0  0
   -3.6700    1.9286   -1.9854 N   0  0
   -3.0770    0.9380   -1.3770 C   0  0
   -2.5124    0.9768    0.0197 C   0  0  1  0  0  0
   -1.2188    1.7498    0.0173 C   0  0
   -0.0126    1.0758    0.0080 C   0  0
    1.1800    1.7854    0.0004 C   0  0
    1.1605    3.1716    0.0076 C   0  0
   -0.0509    3.8455    0.0223 C   0  0
   -1.2408    3.1313    0.0298 C   0  0
   -0.0733    5.2042    0.0289 O   0  0
    1.1891    5.8739    0.0200 C   0  0
    2.3660    1.1220   -0.0136 O   0  0
    3.5537    1.9165   -0.0207 C   0  0
   -3.4700    1.6300    0.9156 N   0  0
   -4.4646    0.9141    1.4765 C   0  0
   -4.5670   -0.2709    1.2395 O   0  0
   -5.4496    1.5860    2.3981 C   0  0
   -6.4007    0.6252    2.8611 O   0  0
   -7.3590    1.0678    3.7017 C   0  0
   -7.3853    2.2384    4.0319 O   0  0
   -8.3655    0.1406    4.2155 C   0  0
   -8.3255   -1.1453    3.8372 C   0  0
   -9.2313   -2.0427    4.2794 O   0  0
   -9.9987   -1.6729    5.4309 C   0  0
  -10.4797   -0.2273    5.2394 C   0  0
   -9.3259    0.6040    5.0632 O   0  0
   -3.0046   -1.7240   -0.9782 H   0  0
   -1.4581   -1.2000   -1.6196 H   0  0
   -2.5623   -2.2052   -2.7039 H   0  0
   -3.8273   -0.3744   -4.2602 H   0  0
   -4.5560    2.1546   -3.9619 H   0  0
   -2.3255   -0.0496    0.3683 H   0  0
    0.0023   -0.0241    0.0066 H   0  0
    2.1047    3.7359    0.0017 H   0  0
   -2.2023    3.6655    0.0457 H   0  0
    1.7204    5.5204   -0.8759 H   0  0
    1.7374    5.5120    0.9023 H   0  0
    1.0896    6.9694    0.0261 H   0  0
    3.5025    2.5572    0.8720 H   0  0
    3.4863    2.5656   -0.9062 H   0  0
    4.4713    1.3099   -0.0320 H   0  0
   -3.3831    2.6364    1.1168 H   0  0
   -4.9139    2.0146    3.2579 H   0  0
   -5.9731    2.3872    1.8558 H   0  0
   -7.5342   -1.4771    3.1489 H   0  0
  -10.8671   -2.3410    5.5278 H   0  0
   -9.3710   -1.7365    6.3320 H   0  0
  -11.0383    0.0987    6.1292 H   0  0
  -11.1202   -0.1657    4.3472 H   0  0
  1  2  1  0
  2  6  1  0
  2  3  1  0
  3  4  2  0
  4  5  1  0
  5  6  2  0
  6  7  1  0
  7  8  1  0
  7 18  1  0
  8 13  2  0
  8  9  1  0
  9 10  2  0
 10 11  1  0
 10 16  1  0
 11 12  2  0
 12 13  1  0
 12 14  1  0
 14 15  1  0
 16 17  1  0
 18 19  1  0
 19 20  2  0
 19 21  1  0
 21 22  1  0
 22 23  1  0
 23 24  2  0
 23 25  1  0
 25 30  1  0
 25 26  2  0
 26 27  1  0
 27 28  1  0
 28 29  1  0
 29 30  1  0
  1 31  1  0
  1 32  1  0
  1 33  1  0
  3 34  1  0
  4 35  1  0
  7 36  1  0
  9 37  1  0
 11 38  1  0
 13 39  1  0
 15 40  1  0
 15 41  1  0
 15 42  1  0
 17 43  1  0
 17 44  1  0
 17 45  1  0
 18 46  1  0
 21 47  1  0
 21 48  1  0
 26 49  1  0
 28 50  1  0
 28 51  1  0
 29 52  1  0
 29 53  1  0
M  END
> <Name>
ZINC22933274

> <reference>
BDB50021152

> <quality>
0.714

> <status>
decoy

$$$$
ZINC21151223
  SciTegic06061311253D

 57 59  0  0  0  0            999 V2000
   15.1811   -1.5952   -4.9094 C   0  0
   13.7700   -2.1216   -5.1786 C   0  0
   12.8089   -1.3385   -4.4227 O   0  0
   11.5154   -1.6743   -4.5488 C   0  0
   11.1968   -2.5922   -5.2670 O   0  0
   10.4606   -0.9065   -3.7945 C   0  0
    9.0815   -1.4877   -4.1125 C   0  0
    8.0561   -0.7412   -3.3793 N   0  0
    6.7574   -1.0784   -3.5058 C   0  0
    6.4444   -2.0617   -4.1489 O   0  0
    5.8055   -0.3256   -2.9196 N   0  0
    6.1501    0.9325   -2.2402 C   0  0
    5.5369    0.9112   -0.8360 C   0  0
    4.0979    0.6340   -0.9376 N   0  0
    3.8505   -0.6956   -1.5109 C   0  0
    4.3945   -0.7401   -2.9428 C   0  0
    3.4412    0.7745    0.3689 C   0  0
    1.9459    0.7269    0.1872 C   0  0
    1.2057   -0.3495    0.1320 N   0  0
   -0.0304   -0.0410   -0.0304 N   0  0
   -0.1655    1.2400   -0.0897 N   0  0
    1.1218    1.7879    0.0504 N   0  0
    1.4747    3.1462    0.0479 C   0  0
    0.6954    4.0673    0.7346 C   0  0
    1.0464    5.4026    0.7370 C   0  0
    2.1711    5.8257    0.0434 C   0  0
    2.9468    4.9063   -0.6482 C   0  0
    2.6000    3.5699   -0.6460 C   0  0
    2.5129    7.1413    0.0409 O   0  0
    1.6695    8.0320    0.7738 C   0  0
   15.4056   -1.6775   -3.8357 H   0  0
   15.2452   -0.5410   -5.2170 H   0  0
   15.9097   -2.1880   -5.4818 H   0  0
   13.5462   -2.0386   -6.2524 H   0  0
   13.7058   -3.1758   -4.8710 H   0  0
   10.6512   -0.9861   -2.7141 H   0  0
   10.4901    0.1512   -4.0951 H   0  0
    8.8901   -1.4081   -5.1928 H   0  0
    9.0497   -2.5452   -3.8114 H   0  0
    8.3277    0.0413   -2.7671 H   0  0
    7.2436    1.0232   -2.1632 H   0  0
    5.7429    1.7829   -2.8068 H   0  0
    5.6886    1.8879   -0.3533 H   0  0
    6.0200    0.1257   -0.2363 H   0  0
    2.7689   -0.8956   -1.5237 H   0  0
    4.3583   -1.4582   -0.9022 H   0  0
    4.3160   -1.7649   -3.3347 H   0  0
    3.8176   -0.0514   -3.5775 H   0  0
    3.7563   -0.0478    1.0281 H   0  0
    3.7244    1.7363    0.8213 H   0  0
   -0.2016    3.7333    1.2767 H   0  0
    0.4343    6.1311    1.2889 H   0  0
    3.8382    5.2422   -1.1983 H   0  0
    3.2152    2.8410   -1.1940 H   0  0
    1.6518    7.6598    1.8088 H   0  0
    0.6588    7.9150    0.3558 H   0  0
    2.0097    9.0769    0.7249 H   0  0
  1  2  1  0
  2  3  1  0
  3  4  1  0
  4  5  2  0
  4  6  1  0
  6  7  1  0
  7  8  1  0
  8  9  1  0
  9 10  2  0
  9 11  1  0
 11 16  1  0
 11 12  1  0
 12 13  1  0
 13 14  1  0
 14 15  1  0
 14 17  1  0
 15 16  1  0
 17 18  1  0
 18 22  1  0
 18 19  2  0
 19 20  1  0
 20 21  2  0
 21 22  1  0
 22 23  1  0
 23 28  2  0
 23 24  1  0
 24 25  2  0
 25 26  1  0
 26 27  2  0
 26 29  1  0
 27 28  1  0
 29 30  1  0
  1 31  1  0
  1 32  1  0
  1 33  1  0
  2 34  1  0
  2 35  1  0
  6 36  1  0
  6 37  1  0
  7 38  1  0
  7 39  1  0
  8 40  1  0
 12 41  1  0
 12 42  1  0
 13 43  1  0
 13 44  1  0
 15 45  1  0
 15 46  1  0
 16 47  1  0
 16 48  1  0
 17 49  1  0
 17 50  1  0
 24 51  1  0
 25 52  1  0
 27 53  1  0
 28 54  1  0
 30 55  1  0
 30 56  1  0
 30 57  1  0
M  END
> <Name>
ZINC21151223

> <reference>
BDB50021152

> <quality>
0.712

> <status>
decoy

$$$$
ZINC12437342
  SciTegic06061311253D

 55 57  0  0  1  0            999 V2000
    0.9800    6.0391    0.0241 C   0  0
    1.4785    4.6615    0.0129 N   0  0
    0.5853    3.6021    0.0158 C   0  0
    1.0851    2.3043    0.0041 C   0  0
    2.4768    2.1048   -0.0099 C   0  0
    2.9370    0.9764   -0.0199 O   0  0
    3.2974    3.1756   -0.0116 N   0  0
    2.8040    4.4260   -0.0006 C   0  0
    3.5737    5.3674   -0.0025 O   0  0
    4.7482    2.9727   -0.0261 C   0  0
   -0.0178    1.4608    0.0101 N   0  0
   -1.1195    2.2569    0.0189 C   0  0
   -0.7461    3.5205    0.0281 N   0  0
   -2.4217    1.8125    0.0218 N   0  0
   -3.5247    2.7766    0.0316 C   0  0
   -4.8380    2.0375    0.0328 C   0  0
   -5.7242    2.2782    0.9671 C   0  0
    0.0021   -0.0041    0.0020 C   0  0
    0.0228   -0.5218    1.4416 C   0  0  1  0  0  0
   -0.0822   -2.0481    1.4363 C   0  0
   -0.1802   -2.5236    2.7803 O   0  0
   -0.2813   -3.8685    2.9535 C   0  0
   -0.2918   -4.7108    1.8516 C   0  0
   -0.3901   -6.0773    2.0278 C   0  0
   -0.4881   -6.6065    3.3061 C   0  0
   -0.4825   -5.7638    4.4078 C   0  0
   -0.3798   -4.3976    4.2318 C   0  0
   -0.5892   -7.9514    3.4794 O   0  0
   -0.5887   -8.7592    2.3006 C   0  0
    1.2446   -0.1306    2.0710 O   0  0
    1.4249    6.5125   -0.8636 H   0  0
    1.4415    6.5041    0.9078 H   0  0
   -0.1173    6.1155    0.0347 H   0  0
    4.9469    2.3597   -0.9176 H   0  0
    4.9632    2.3500    0.8548 H   0  0
    5.3255    3.9091   -0.0263 H   0  0
   -2.6210    0.8020    0.0171 H   0  0
   -3.4642    3.4137   -0.8630 H   0  0
   -3.4563    3.4030    0.9332 H   0  0
   -5.0525    1.2959   -0.7508 H   0  0
   -5.5097    3.0198    1.7507 H   0  0
   -6.6828    1.7387    0.9680 H   0  0
    0.9000   -0.3568   -0.5266 H   0  0
   -0.8961   -0.3803   -0.5095 H   0  0
   -0.8274   -0.0977    1.9960 H   0  0
   -0.9775   -2.3522    0.8741 H   0  0
    0.8124   -2.4766    0.9609 H   0  0
   -0.2218   -4.2906    0.8374 H   0  0
   -0.3907   -6.7458    1.1543 H   0  0
   -0.5598   -6.1835    5.4217 H   0  0
   -0.3761   -3.7293    5.1055 H   0  0
    0.3450   -8.5274    1.7672 H   0  0
   -1.4270   -8.4051    1.6827 H   0  0
   -0.6734   -9.8336    2.5210 H   0  0
    1.3133    0.8570    2.0752 H   0  0
  1  2  1  0
  2  8  1  0
  2  3  1  0
  3 13  1  0
  3  4  2  0
  4  5  1  0
  4 11  1  0
  5  6  2  0
  5  7  1  0
  7  8  1  0
  7 10  1  0
  8  9  2  0
 11 12  1  0
 11 18  1  0
 12 13  2  0
 12 14  1  0
 14 15  1  0
 15 16  1  0
 16 17  2  0
 18 19  1  0
 19 20  1  0
 19 30  1  0
 20 21  1  0
 21 22  1  0
 22 27  2  0
 22 23  1  0
 23 24  2  0
 24 25  1  0
 25 26  2  0
 25 28  1  0
 26 27  1  0
 28 29  1  0
  1 31  1  0
  1 32  1  0
  1 33  1  0
 10 34  1  0
 10 35  1  0
 10 36  1  0
 14 37  1  0
 15 38  1  0
 15 39  1  0
 16 40  1  0
 17 41  1  0
 17 42  1  0
 18 43  1  0
 18 44  1  0
 19 45  1  0
 20 46  1  0
 20 47  1  0
 23 48  1  0
 24 49  1  0
 26 50  1  0
 27 51  1  0
 29 52  1  0
 29 53  1  0
 29 54  1  0
 30 55  1  0
M  END
> <Name>
ZINC12437342

> <reference>
BDB50021152

> <quality>
0.712

> <status>
decoy

$$$$
ZINC22993679
  SciTegic06061311253D

 48 50  0  0  0  0            999 V2000
    2.4239    0.0587   -0.3336 C   0  0
    2.3234    1.4080    0.1264 O   0  0
    1.0721    1.9310    0.2380 C   0  0
   -0.0321    1.1613   -0.0884 C   0  0
   -1.3035    1.6930    0.0185 C   0  0
   -1.4782    2.9964    0.4641 C   0  0
   -0.3748    3.7717    0.7924 C   0  0
    0.9013    3.2411    0.6801 C   0  0
    2.0160    4.0204    1.0098 N   0  0
    1.9235    5.1155    2.2486 S   0  0
    3.2374    5.6442    2.3641 O   0  0
    0.8312    5.9578    1.9072 O   0  0
    1.5164    4.1277    3.7146 C   0  0
   -2.7683    3.5308    0.5775 N   0  0
   -3.7923    2.7436    0.9624 C   0  0
   -3.6165    1.5540    1.1209 O   0  0
   -5.1558    3.3414    1.1960 C   0  0
   -6.1293    2.2405    1.6217 C   0  0
   -7.4928    2.8384    1.8552 C   0  0
   -8.4447    2.9759    0.9662 N   0  0
   -9.4744    3.5554    1.6234 C   0  0
   -9.0914    3.7339    2.8604 N   0  0
   -7.9601    3.3228    3.0101 O   0  0
  -10.7935    3.9205    1.0477 C   0  0
  -11.0798    3.6813   -0.2986 C   0  0
  -12.3206    4.0316   -0.7919 C   0  0
  -13.2245    4.5939   -0.0133 N   0  0
  -12.9924    4.8413    1.2612 C   0  0
  -11.7799    4.5179    1.8363 C   0  0
    1.9250    0.0281   -1.3135 H   0  0
    1.8326   -0.5511    0.3653 H   0  0
    3.4643   -0.2927   -0.3976 H   0  0
    0.1029    0.1255   -0.4332 H   0  0
   -2.1783    1.0825   -0.2499 H   0  0
   -0.5125    4.8058    1.1412 H   0  0
    2.8939    3.9128    0.4820 H   0  0
    2.3049    3.3950    3.9412 H   0  0
    0.5442    3.6244    3.6069 H   0  0
    1.4431    4.8135    4.5715 H   0  0
   -2.9342    4.5253    0.3667 H   0  0
   -5.0923    4.1008    1.9892 H   0  0
   -5.5160    3.8096    0.2681 H   0  0
   -6.1935    1.4809    0.8287 H   0  0
   -5.7713    1.7719    2.5503 H   0  0
  -10.3276    3.2206   -0.9559 H   0  0
  -12.5586    3.8392   -1.8485 H   0  0
  -13.7755    5.3116    1.8741 H   0  0
  -11.5931    4.7275    2.8999 H   0  0
  1  2  1  0
  2  3  1  0
  3  8  2  0
  3  4  1  0
  4  5  2  0
  5  6  1  0
  6  7  2  0
  6 14  1  0
  7  8  1  0
  8  9  1  0
  9 10  1  0
 10 11  2  0
 10 12  2  0
 10 13  1  0
 14 15  1  0
 15 16  2  0
 15 17  1  0
 17 18  1  0
 18 19  1  0
 19 23  1  0
 19 20  2  0
 20 21  1  0
 21 22  2  0
 21 24  1  0
 22 23  1  0
 24 29  2  0
 24 25  1  0
 25 26  2  0
 26 27  1  0
 27 28  2  0
 28 29  1  0
  1 30  1  0
  1 31  1  0
  1 32  1  0
  4 33  1  0
  5 34  1  0
  7 35  1  0
  9 36  1  0
 13 37  1  0
 13 38  1  0
 13 39  1  0
 14 40  1  0
 17 41  1  0
 17 42  1  0
 18 43  1  0
 18 44  1  0
 25 45  1  0
 26 46  1  0
 28 47  1  0
 29 48  1  0
M  END
> <Name>
ZINC22993679

> <reference>
BDB50021152

> <quality>
0.707

> <status>
decoy

$$$$
ZINC20100485
  SciTegic06061311253D

 56 58  0  0  0  0            999 V2000
  -11.6442    6.4210    4.3841 C   0  0
  -11.0671    6.7639    3.1757 C   0  0
  -11.1848    5.9180    2.0888 C   0  0
  -11.8800    4.7293    2.2101 C   0  0
  -12.4620    4.3891    3.4169 C   0  0
  -12.3398    5.2325    4.5053 C   0  0
  -12.0087    3.8073    1.0250 C   0  0
  -10.8833    2.8633    1.0146 N   0  3
  -10.8416    2.1074   -0.2450 C   0  0
   -9.7068    1.0822   -0.1843 C   0  0
   -8.4339    1.7776    0.0517 N   0  0
   -8.4756    2.5335    1.3113 C   0  0
   -9.6104    3.5587    1.2506 C   0  0
   -7.3084    0.8336    0.0413 C   0  0
   -6.0105    1.5993    0.0392 C   0  0
   -6.0219    2.8124    0.0458 O   0  0
   -4.8370    0.9365    0.0301 N   0  0
   -3.6304    1.6483    0.0282 N   0  0
   -2.5003    1.0100    0.0194 C   0  0
   -1.2309    1.7588    0.0174 C   0  0
   -0.0126    1.0758    0.0080 C   0  0
    1.1715    1.7826    0.0004 C   0  0
    1.1582    3.1670    0.0075 C   0  0
   -0.0406    3.8545    0.0226 C   0  0
   -1.2395    3.1603    0.0304 C   0  0
   -2.4180    3.8349    0.0452 O   0  0
   -2.3485    5.2622    0.0522 C   0  0
   -3.7431    5.8330    0.0685 C   0  0
   -4.6986    5.0934    0.0737 O   0  0
   -3.9239    7.1630    0.0774 O   0  5
  -11.5499    7.0938    5.2492 H   0  0
  -10.5142    7.7099    3.0790 H   0  0
  -10.7253    6.1907    1.1273 H   0  0
  -13.0224    3.4472    3.5111 H   0  0
  -12.7960    4.9579    5.4678 H   0  0
  -12.9540    3.2493    1.0954 H   0  0
  -11.9996    4.3978    0.0970 H   0  0
  -11.0265    2.1927    1.7832 H   0  0
  -11.7989    1.5860   -0.3921 H   0  0
  -10.6667    2.7980   -1.0831 H   0  0
   -9.6539    0.5349   -1.1370 H   0  0
   -9.8952    0.3743    0.6363 H   0  0
   -7.5185    3.0551    1.4594 H   0  0
   -8.6509    1.8421    2.1487 H   0  0
   -9.6610    4.1057    2.2036 H   0  0
   -9.4212    4.2665    0.4301 H   0  0
   -7.3639    0.2051   -0.8597 H   0  0
   -7.3560    0.1962    0.9365 H   0  0
   -4.8273   -0.0934    0.0245 H   0  0
   -2.4900   -0.0899    0.0134 H   0  0
    0.0023   -0.0241    0.0067 H   0  0
    2.1306    1.2442   -0.0114 H   0  0
    2.1073    3.7230    0.0011 H   0  0
   -0.0428    4.9545    0.0284 H   0  0
   -1.8216    5.6092   -0.8489 H   0  0
   -1.8047    5.5986    0.9473 H   0  0
  1  6  2  0
  1  2  1  0
  2  3  2  0
  3  4  1  0
  4  5  2  0
  4  7  1  0
  5  6  1  0
  7  8  1  0
  8 13  1  0
  8  9  1  0
  9 10  1  0
 10 11  1  0
 11 12  1  0
 11 14  1  0
 12 13  1  0
 14 15  1  0
 15 16  2  0
 15 17  1  0
 17 18  1  0
 18 19  2  0
 19 20  1  0
 20 25  2  0
 20 21  1  0
 21 22  2  0
 22 23  1  0
 23 24  2  0
 24 25  1  0
 25 26  1  0
 26 27  1  0
 27 28  1  0
 28 29  2  0
 28 30  1  0
  1 31  1  0
  2 32  1  0
  3 33  1  0
  5 34  1  0
  6 35  1  0
  7 36  1  0
  7 37  1  0
  8 38  1  0
  9 39  1  0
  9 40  1  0
 10 41  1  0
 10 42  1  0
 12 43  1  0
 12 44  1  0
 13 45  1  0
 13 46  1  0
 14 47  1  0
 14 48  1  0
 17 49  1  0
 19 50  1  0
 21 51  1  0
 22 52  1  0
 23 53  1  0
 24 54  1  0
 27 55  1  0
 27 56  1  0
M  CHG  2   8   1  30  -1
M  END
> <Name>
ZINC20100485

> <reference>
BDB50021152

> <quality>
0.707

> <status>
decoy

$$$$
ZINC24879336
  SciTegic06061311253D

 50 51  0  0  0  0            999 V2000
   -5.0882    3.5073    0.8833 C   0  0
   -3.7220    3.0453    0.4462 C   0  0
   -2.6806    3.8924    0.5172 C   0  0
   -1.3028    3.4779    0.0845 C   0  0  1  0  0  0
   -1.2078    1.9828   -0.0280 C   0  0
   -2.3083    1.2127   -0.0823 C   0  0
   -3.5568    1.7691   -0.0184 N   0  0
   -2.1651   -0.2821   -0.2097 C   0  0
    0.0668    1.3728   -0.0839 C   0  0
    0.7330    1.2617    0.9284 O   0  0
    0.5420    0.9090   -1.2587 O   0  0
    1.8342    0.2991   -1.2405 C   0  0
   -0.9963    4.0968   -1.2550 C   0  0
   -0.7291    3.3918   -2.1992 O   0  0
   -1.0201    5.4311   -1.3990 O   0  0
   -0.7147    5.9573   -2.7174 C   0  0
   -0.7896    7.4622   -2.6873 C   0  0
   -1.0724    8.0346   -1.6566 O   0  0
   -0.5421    8.1717   -3.8062 N   0  0
   -0.6091    9.5175   -3.7793 C   0  0
   -0.8929   10.0919   -2.7450 O   0  0
   -0.3402   10.2888   -4.9955 C   0  0
   -0.3733   11.6503   -5.1068 C   0  0
   -0.0545   11.9538   -6.4391 C   0  0
    0.1568   10.7800   -7.0752 C   0  0
   -0.0105    9.7796   -6.2008 O   0  0
   -2.8864    5.2020    1.0095 C   0  0
   -2.4910    5.5037    2.1200 O   0  0
   -3.5213    6.1172    0.2476 O   0  0
   -3.6946    7.4202    0.8081 C   0  0
   -5.4007    2.7932    1.6595 H   0  0
   -5.7400    3.3493    0.0114 H   0  0
   -5.1092    4.5481    1.2388 H   0  0
   -0.5782    3.8217    0.8373 H   0  0
   -4.3766    1.2242   -0.3217 H   0  0
   -1.5487   -0.5891    0.6481 H   0  0
   -1.5657   -0.4402   -1.1184 H   0  0
   -3.1270   -0.8145   -0.2453 H   0  0
    1.7762   -0.5275   -0.5170 H   0  0
    2.5266    1.0528   -0.8374 H   0  0
    2.1520   -0.0530   -2.2330 H   0  0
   -1.4419    5.5692   -3.4458 H   0  0
    0.2991    5.6470   -3.0104 H   0  0
   -0.3018    7.6854   -4.6818 H   0  0
   -0.6050   12.3691   -4.3070 H   0  0
    0.0111   12.9583   -6.8826 H   0  0
    0.4225   10.6654   -8.1365 H   0  0
   -2.6877    7.7863    1.0575 H   0  0
   -4.2462    7.2813    1.7496 H   0  0
   -4.2192    8.1086    0.1292 H   0  0
  1  2  1  0
  2  7  1  0
  2  3  2  0
  3  4  1  0
  3 27  1  0
  4  5  1  0
  4 13  1  0
  5  6  2  0
  5  9  1  0
  6  7  1  0
  6  8  1  0
  9 10  2  0
  9 11  1  0
 11 12  1  0
 13 14  2  0
 13 15  1  0
 15 16  1  0
 16 17  1  0
 17 18  2  0
 17 19  1  0
 19 20  1  0
 20 21  2  0
 20 22  1  0
 22 26  1  0
 22 23  2  0
 23 24  1  0
 24 25  2  0
 25 26  1  0
 27 28  2  0
 27 29  1  0
 29 30  1  0
  1 31  1  0
  1 32  1  0
  1 33  1  0
  4 34  1  0
  7 35  1  0
  8 36  1  0
  8 37  1  0
  8 38  1  0
 12 39  1  0
 12 40  1  0
 12 41  1  0
 16 42  1  0
 16 43  1  0
 19 44  1  0
 23 45  1  0
 24 46  1  0
 25 47  1  0
 30 48  1  0
 30 49  1  0
 30 50  1  0
M  END
> <Name>
ZINC24879336

> <reference>
BDB50021152

> <quality>
0.707

> <status>
decoy

$$$$
ZINC18345980
  SciTegic06061311253D

 49 50  0  0  1  0            999 V2000
    2.3215   -3.0786  -10.1068 C   0  0
    2.0624   -4.5219   -9.7594 C   0  0
    1.6560   -4.8637   -8.4819 C   0  0
    1.5265   -6.2422   -8.1165 C   0  0
    1.4238   -7.3358   -7.8266 N   0  0
    1.3682   -3.8505   -7.5358 C   0  0
    1.5682   -2.6856   -7.8139 O   0  0
    0.8137   -4.2178   -6.1835 C   0  0
    0.6050   -3.0119   -5.4021 O   0  0
    0.1114   -3.1662   -4.1634 C   0  0
   -0.1380   -4.2723   -3.7460 O   0  0
   -0.1316   -1.9599   -3.2935 C   0  0  1  0  0  0
   -1.1392   -1.0323   -3.9764 C   0  0
   -1.3618    0.2088   -3.1090 C   0  0
   -1.9414   -0.2191   -1.7522 C   0  0
   -1.0452   -1.2189   -1.1556 N   0  0
   -0.6927   -2.4096   -1.9409 C   0  0
   -0.4492   -1.0110    0.3754 S   0  0
   -0.1271   -2.3055    0.8650 O   0  0
   -1.3524   -0.1448    1.0486 O   0  0
    1.0727   -0.1355    0.2275 C   0  0
    1.0802    1.2466    0.2579 C   0  0
    2.2733    1.9344    0.1424 C   0  0
    3.4614    1.2387   -0.0040 C   0  0
    3.4527   -0.1456   -0.0343 C   0  0
    2.2584   -0.8312    0.0818 C   0  0
    4.6283    1.9100   -0.1178 F   0  0
    2.2267   -5.4808  -10.6941 N   0  3
    3.0757   -2.7409   -9.3807 H   0  0
    1.3839   -2.5547   -9.8691 H   0  0
    2.6394   -2.9215  -11.1481 H   0  0
    0.8411   -5.5680   -8.7054 H   0  0
   -0.1448   -4.7424   -6.3103 H   0  0
    1.5246   -4.8743   -5.6604 H   0  0
    0.8166   -1.4241   -3.1392 H   0  0
   -0.7494   -0.7271   -4.9587 H   0  0
   -2.0943   -1.5614   -4.1097 H   0  0
   -2.0670    0.8875   -3.6111 H   0  0
   -0.4027    0.7241   -2.9520 H   0  0
   -2.0117    0.6555   -1.0888 H   0  0
   -2.9389   -0.6590   -1.8983 H   0  0
    0.0673   -2.9941   -1.4017 H   0  0
   -1.5909   -3.0242   -2.1006 H   0  0
    0.1361    1.7991    0.3741 H   0  0
    2.2790    3.0341    0.1668 H   0  0
    4.3960   -0.6994   -0.1507 H   0  0
    2.2512   -1.9309    0.0583 H   0  0
    2.5293   -5.2264  -11.6452 H   0  0
    2.0496   -6.4673  -10.4566 H   0  0
  1  2  1  0
  2  3  1  0
  2 28  2  0
  3  4  1  0
  3  6  1  0
  4  5  3  0
  6  7  2  0
  6  8  1  0
  8  9  1  0
  9 10  1  0
 10 11  2  0
 10 12  1  0
 12 17  1  0
 12 13  1  0
 13 14  1  0
 14 15  1  0
 15 16  1  0
 16 17  1  0
 16 18  1  0
 18 19  2  0
 18 20  2  0
 18 21  1  0
 21 26  2  0
 21 22  1  0
 22 23  2  0
 23 24  1  0
 24 25  2  0
 24 27  1  0
 25 26  1  0
  1 29  1  0
  1 30  1  0
  1 31  1  0
  3 32  1  0
  8 33  1  0
  8 34  1  0
 12 35  1  0
 13 36  1  0
 13 37  1  0
 14 38  1  0
 14 39  1  0
 15 40  1  0
 15 41  1  0
 17 42  1  0
 17 43  1  0
 22 44  1  0
 23 45  1  0
 25 46  1  0
 26 47  1  0
 28 48  1  0
 28 49  1  0
M  CHG  1  28   1
M  END
> <Name>
ZINC18345980

> <reference>
BDB50021152

> <quality>
0.705

> <status>
decoy

$$$$
ZINC16151300
  SciTegic06061311253D

 50 51  0  0  0  0            999 V2000
   -1.3244    8.6100    1.5103 C   0  0
   -0.8794    7.5317    0.5202 C   0  0
    0.5838    7.5039    0.4535 N   0  0
    1.2941    8.4251   -0.4370 C   0  0
    1.3649    7.8235   -1.8419 C   0  0
    1.4349    6.4310    1.3847 S   0  0
    0.6541    6.1946    2.5482 O   0  0
    2.7686    6.9172    1.4481 O   0  0
    1.4955    4.9079    0.5009 C   0  0
    2.5892    4.6139   -0.2922 C   0  0
    2.6422    3.4203   -0.9885 C   0  0
    1.5981    2.5154   -0.8928 C   0  0
    0.4959    2.8106   -0.0936 C   0  0
    0.4472    4.0123    0.5979 C   0  0
   -0.5622    1.8998    0.0069 N   0  5
   -0.6119    0.8240    1.2649 S   0  0
   -1.8202    0.0896    1.1237 O   0  0
    0.6612    0.1944    1.3114 O   0  0
   -0.7637    1.7632    2.7479 C   0  0
   -1.9121    2.2646    3.2587 C   0  0
   -1.6045    2.9177    4.3988 N   0  0
   -0.2213    2.8142    4.5953 N   0  0
    0.2806    2.1170    3.6085 C   0  0
    1.7337    1.7605    3.4279 C   0  0
   -3.2879    2.1200    2.6611 C   0  0
    1.6485    1.3414   -1.5779 O   0  0
    2.8094    1.1062   -2.3773 C   0  0
   -0.9546    9.5908    1.1766 H   0  0
   -0.9168    8.3849    2.5069 H   0  0
   -2.4230    8.6314    1.5609 H   0  0
   -1.2494    6.5513    0.8548 H   0  0
   -1.2869    7.7568   -0.4764 H   0  0
    0.7573    9.3845   -0.4762 H   0  0
    2.3134    8.5904   -0.0580 H   0  0
    0.3463    7.6585   -2.2230 H   0  0
    1.9015    6.8640   -1.8044 H   0  0
    1.8982    8.5148   -2.5111 H   0  0
    3.4194    5.3314   -0.3695 H   0  0
    3.5139    3.1895   -1.6185 H   0  0
   -0.4254    4.2523    1.2232 H   0  0
   -2.2693    3.4061    5.0156 H   0  0
    1.9493    2.1436    2.4196 H   0  0
    1.6998    0.6654    3.3300 H   0  0
    2.4276    2.1201    4.2019 H   0  0
   -3.3892    1.0299    2.5544 H   0  0
   -3.1486    2.5104    1.6422 H   0  0
   -4.1126    2.5943    3.2133 H   0  0
    3.6715    1.1712   -1.6972 H   0  0
    2.8734    1.9464   -3.0844 H   0  0
    2.7774    0.1387   -2.8996 H   0  0
  1  2  1  0
  2  3  1  0
  3  4  1  0
  3  6  1  0
  4  5  1  0
  6  7  2  0
  6  8  2  0
  6  9  1  0
  9 14  2  0
  9 10  1  0
 10 11  2  0
 11 12  1  0
 12 13  2  0
 12 26  1  0
 13 14  1  0
 13 15  1  0
 15 16  1  0
 16 17  2  0
 16 18  2  0
 16 19  1  0
 19 23  1  0
 19 20  2  0
 20 21  1  0
 20 25  1  0
 21 22  1  0
 22 23  2  0
 23 24  1  0
 26 27  1  0
  1 28  1  0
  1 29  1  0
  1 30  1  0
  2 31  1  0
  2 32  1  0
  4 33  1  0
  4 34  1  0
  5 35  1  0
  5 36  1  0
  5 37  1  0
 10 38  1  0
 11 39  1  0
 14 40  1  0
 21 41  1  0
 24 42  1  0
 24 43  1  0
 24 44  1  0
 25 45  1  0
 25 46  1  0
 25 47  1  0
 27 48  1  0
 27 49  1  0
 27 50  1  0
M  CHG  1  15  -1
M  END
> <Name>
ZINC16151300

> <reference>
BDB50021152

> <quality>
0.696

> <status>
decoy

$$$$
ZINC25956972
  SciTegic06061311253D

 45 47  0  0  1  0            999 V2000
   -8.8185    4.0223   10.9475 C   0  0
   -8.3433    4.2649    9.6443 C   0  0
   -7.4884    3.2475    9.3428 C   0  0
   -7.4398    2.4147   10.4013 O   0  0
   -8.2386    2.8829   11.3745 C   0  0
   -6.7519    3.0835    8.0799 C   0  0
   -6.5722    4.0003    7.1544 N   0  0
   -5.8822    3.5153    6.1849 N   0  0
   -5.5780    2.2605    6.4292 C   0  0
   -6.1247    1.9385    7.6398 N   0  0
   -6.0553    0.6468    8.3274 C   0  0
   -4.8175    0.6133    9.2261 C   0  0
   -4.7460   -0.7155    9.9334 C   0  0
   -5.6009   -1.5532    9.7379 O   0  0
   -3.7320   -0.9729   10.7832 N   0  0
   -4.6451    1.1896    5.3862 S   0  0
   -4.2956    2.3150    4.0124 C   0  0
   -3.4832    1.5947    2.9673 C   0  0
   -3.1723    0.4391    3.1342 O   0  0
   -3.1048    2.2369    1.8510 O   0  0
   -2.3242    1.4810    0.8880 C   0  0  2  0  0  0
   -0.8280    1.6307    1.2154 C   0  0
   -0.0127    1.0858    0.0080 C   0  0
   -1.0056    1.7465   -1.3965 S   0  0
   -0.4740    3.0052   -1.7866 O   0  0
   -1.1672    0.7238   -2.3697 O   0  0
   -2.6090    2.0146   -0.5366 C   0  0
   -9.5290    4.6452   11.5108 H   0  0
   -8.6105    5.1119    8.9953 H   0  0
   -8.3938    2.4140   12.3574 H   0  0
   -6.9575    0.5092    8.9415 H   0  0
   -5.9903   -0.1621    7.5848 H   0  0
   -4.8813    1.4209    9.9702 H   0  0
   -3.9149    0.7505    8.6125 H   0  0
   -3.0060   -0.2614   10.9492 H   0  0
   -3.6831   -1.8811   11.2666 H   0  0
   -3.7293    3.1824    4.3825 H   0  0
   -5.2422    2.6572    3.5687 H   0  0
   -2.6010    0.4175    0.9371 H   0  0
   -0.5854    1.0494    2.1172 H   0  0
   -0.5882    2.6925    1.3740 H   0  0
   -0.0248   -0.0140   -0.0089 H   0  0
    0.9977    1.5203   -0.0097 H   0  0
   -3.3970    1.4196   -1.0214 H   0  0
   -2.8423    3.0892   -0.5080 H   0  0
  1  5  2  0
  1  2  1  0
  2  3  2  0
  3  4  1  0
  3  6  1  0
  4  5  1  0
  6 10  1  0
  6  7  2  0
  7  8  1  0
  8  9  2  0
  9 10  1  0
  9 16  1  0
 10 11  1  0
 11 12  1  0
 12 13  1  0
 13 14  2  0
 13 15  1  0
 16 17  1  0
 17 18  1  0
 18 19  2  0
 18 20  1  0
 20 21  1  0
 21 27  1  0
 21 22  1  0
 22 23  1  0
 23 24  1  0
 24 25  2  0
 24 26  2  0
 24 27  1  0
  1 28  1  0
  2 29  1  0
  5 30  1  0
 11 31  1  0
 11 32  1  0
 12 33  1  0
 12 34  1  0
 15 35  1  0
 15 36  1  0
 17 37  1  0
 17 38  1  0
 21 39  1  0
 22 40  1  0
 22 41  1  0
 23 42  1  0
 23 43  1  0
 27 44  1  0
 27 45  1  0
M  END
> <Name>
ZINC25956972

> <reference>
BDB50021152

> <quality>
0.695

> <status>
decoy

$$$$
ZINC02384951
  SciTegic06061311253D

 48 49  0  0  1  0            999 V2000
    2.5601    0.6278   -1.3388 C   0  0
    2.4291    1.4134   -0.0325 C   0  0  2  0  0  0
    3.5225    2.4816    0.0321 C   0  0
    2.5780    0.4588    1.1539 C   0  0
    1.1257    2.0512    0.0202 O   0  0
    0.0484    1.2450   -0.0267 C   0  0
    0.1934    0.0414   -0.1094 O   0  0
   -1.1909    1.7733    0.0124 N   0  0
   -2.3631    0.8965   -0.0447 C   0  0  2  0  0  0
   -3.5568    1.6764   -0.5996 C   0  0
   -3.2811    2.0671   -2.0287 C   0  0
   -4.0612    1.7841   -3.0892 C   0  0
   -3.4462    2.3233   -4.1895 N   0  0
   -2.3008    2.9117   -3.7574 C   0  0
   -2.2135    2.7519   -2.4650 N   0  0
   -3.9093    2.2719   -5.5122 C   0  0
   -3.1219    1.7013   -6.5032 C   0  0
   -3.5829    1.6474   -7.8039 C   0  0
   -4.8229    2.1709   -8.1218 C   0  0
   -5.6070    2.7444   -7.1381 C   0  0
   -5.1534    2.7965   -5.8342 C   0  0
   -5.9930    3.4116   -4.7818 N   0  0
   -7.1318    3.7598   -5.0373 O   0  0
   -5.5451    3.5695   -3.6602 O   0  0
   -5.3113    2.1175   -9.5181 N   0  0
   -6.4030    2.5785   -9.7994 O   0  0
   -4.6215    1.6125  -10.3856 O   0  0
   -2.6874    0.4005    1.3408 C   0  0
   -2.0089    0.7441    2.2797 O   0  0
   -3.7299   -0.4231    1.5319 O   0  5
    3.5472    0.1440   -1.3795 H   0  0
    2.4529    1.3132   -2.1924 H   0  0
    1.7742   -0.1404   -1.3859 H   0  0
    3.4161    3.1687   -0.8203 H   0  0
    4.5104    1.9994   -0.0074 H   0  0
    3.4289    3.0468    0.9711 H   0  0
    3.5653   -0.0247    1.1151 H   0  0
    1.7921   -0.3095    1.1086 H   0  0
    2.4839    1.0230    2.0935 H   0  0
   -1.3138    2.7935    0.0824 H   0  0
   -2.1484    0.0395   -0.7000 H   0  0
   -4.4574    1.0461   -0.5596 H   0  0
   -3.7164    2.5826    0.0032 H   0  0
   -5.0097    1.2272   -3.0753 H   0  0
   -1.5693    3.4352   -4.3906 H   0  0
   -2.1319    1.2926   -6.2526 H   0  0
   -2.9632    1.1876   -8.5879 H   0  0
   -6.5930    3.1596   -7.3939 H   0  0
  1  2  1  0
  2  3  1  0
  2  4  1  0
  2  5  1  0
  5  6  1  0
  6  7  2  0
  6  8  1  0
  8  9  1  0
  9 10  1  0
  9 28  1  0
 10 11  1  0
 11 15  1  0
 11 12  2  0
 12 13  1  0
 13 14  1  0
 13 16  1  0
 14 15  2  0
 16 21  2  0
 16 17  1  0
 17 18  2  0
 18 19  1  0
 19 20  2  0
 19 25  1  0
 20 21  1  0
 21 22  1  0
 22 23  2  0
 22 24  2  0
 25 26  2  0
 25 27  2  0
 28 29  2  0
 28 30  1  0
  1 31  1  0
  1 32  1  0
  1 33  1  0
  3 34  1  0
  3 35  1  0
  3 36  1  0
  4 37  1  0
  4 38  1  0
  4 39  1  0
  8 40  1  0
  9 41  1  0
 10 42  1  0
 10 43  1  0
 12 44  1  0
 14 45  1  0
 17 46  1  0
 18 47  1  0
 20 48  1  0
M  CHG  1  30  -1
M  END
> <Name>
ZINC02384951

> <reference>
BDB50021152

> <quality>
0.695

> <status>
decoy

$$$$
ZINC26078225
  SciTegic06061311253D

 46 47  0  0  0  0            999 V2000
    7.8904   -3.1118   -1.1333 C   0  0
    6.8044   -3.9223   -0.4740 C   0  0
    6.9281   -5.2946   -0.3767 C   0  0
    5.9320   -6.0389    0.2276 C   0  0
    4.8090   -5.4125    0.7369 C   0  0
    4.6817   -4.0404    0.6475 C   0  0
    5.6780   -3.2904    0.0359 C   0  0
    5.5495   -1.9004   -0.0610 N   0  0
    4.3268   -1.3338   -0.0431 C   0  0
    3.3349   -2.0318   -0.0440 O   0  0
    4.1921    0.1670   -0.0219 C   0  0
    2.7854    0.5265   -0.0052 O   0  0
    2.4898    1.8425    0.0149 C   0  0
    3.3842    2.6666    0.0183 O   0  0
    1.0915    2.2789    0.0326 C   0  0
    0.6440    3.5841    0.0530 C   0  0
   -0.7531    3.5363    0.0637 C   0  0
   -1.1241    2.2334    0.0449 C   0  0
   -0.0169    1.4618    0.0311 N   0  0
    0.0026   -0.0029    0.0113 C   0  0
   -1.8386    4.9240    0.0903 S   0  0
   -3.0651    4.4696    0.6459 O   0  0
   -1.1033    6.0042    0.6486 O   0  0
   -2.1536    5.3295   -1.4840 N   0  0
   -2.8844    4.3990   -2.3479 C   0  0
    3.7452   -6.2132    1.3834 N   0  0
    3.8590   -7.4230    1.4668 O   0  0
    2.7559   -5.6622    1.8322 O   0  0
    8.1958   -2.3747   -0.3761 H   0  0
    7.3848   -2.5592   -1.9389 H   0  0
    8.7350   -3.7133   -1.5005 H   0  0
    7.8202   -5.7958   -0.7805 H   0  0
    6.0328   -7.1316    0.3035 H   0  0
    3.7922   -3.5419    1.0602 H   0  0
    6.3894   -1.3103   -0.1460 H   0  0
    4.6828    0.5666    0.8778 H   0  0
    4.6677    0.5916   -0.9183 H   0  0
    1.2680    4.4900    0.0596 H   0  0
   -2.1603    1.8641    0.0414 H   0  0
    0.6313   -0.2469    0.8803 H   0  0
    0.6163   -0.2234   -0.8746 H   0  0
   -0.9749   -0.5074    0.0129 H   0  0
   -1.8357    6.2359   -1.8558 H   0  0
   -3.8239    4.2043   -1.8099 H   0  0
   -2.3011    3.4674   -2.3044 H   0  0
   -3.0481    4.7513   -3.3770 H   0  0
  1  2  1  0
  2  7  2  0
  2  3  1  0
  3  4  2  0
  4  5  1  0
  5  6  2  0
  5 26  1  0
  6  7  1  0
  7  8  1  0
  8  9  1  0
  9 10  2  0
  9 11  1  0
 11 12  1  0
 12 13  1  0
 13 14  2  0
 13 15  1  0
 15 19  1  0
 15 16  2  0
 16 17  1  0
 17 18  2  0
 17 21  1  0
 18 19  1  0
 19 20  1  0
 21 22  2  0
 21 23  2  0
 21 24  1  0
 24 25  1  0
 26 27  2  0
 26 28  2  0
  1 29  1  0
  1 30  1  0
  1 31  1  0
  3 32  1  0
  4 33  1  0
  6 34  1  0
  8 35  1  0
 11 36  1  0
 11 37  1  0
 16 38  1  0
 18 39  1  0
 20 40  1  0
 20 41  1  0
 20 42  1  0
 24 43  1  0
 25 44  1  0
 25 45  1  0
 25 46  1  0
M  END
> <Name>
ZINC26078225

> <reference>
BDB50021152

> <quality>
0.694

> <status>
decoy

$$$$
ZINC24824679
  SciTegic06061311253D

 47 48  0  0  1  0            999 V2000
   -2.1980    1.1548    1.2173 C   0  0
   -0.7288    1.5792    1.2668 C   0  0  1  0  0  0
   -0.0127    1.0858    0.0080 C   0  0
   -0.7038    1.5592   -1.1497 O   0  0
   -0.1136    1.1523   -2.3859 C   0  0
   -0.6447    3.0402    1.3356 N   0  0
   -0.7313    3.6649    2.5267 C   0  0
   -0.8792    3.0162    3.5438 O   0  0
   -0.6539    5.0089    2.5899 N   0  0
   -0.7405    5.6336    3.7810 C   0  0
   -0.8880    4.9865    4.7956 O   0  0
   -0.6539    7.1365    3.8518 C   0  0  2  0  0  0
    0.6928    7.5967    3.2900 C   0  0
   -0.7730    7.5636    5.2344 O   0  0
   -1.3234    8.7678    5.4549 C   0  0
   -1.6934    9.4427    4.5235 O   0  0
   -1.4799    9.2781    6.8642 C   0  0
   -2.2483   10.9166    6.8308 S   0  0
   -2.3088   11.2614    8.5576 C   0  0
   -2.8551   12.4881    9.0286 C   0  0
   -3.4184   13.6005    8.2841 C   0  0
   -3.8788   14.6690    8.9515 C   0  0
   -3.5842   14.2516   10.6597 S   0  0
   -2.8507   12.6535   10.4307 C   0  0
   -2.3688   11.7230   11.2313 N   0  0
   -1.8750   10.6054   10.7349 C   0  0
   -1.8517   10.3803    9.4335 N   0  0
   -2.2623    0.0579    1.1659 H   0  0
   -2.6772    1.5916    0.3287 H   0  0
   -2.7135    1.5092    2.1221 H   0  0
   -0.2506    1.1421    2.1557 H   0  0
    1.0191    1.4669   -0.0002 H   0  0
    0.0026   -0.0141    0.0008 H   0  0
   -0.0888    0.0526   -2.3954 H   0  0
    0.9217    1.5237   -2.3971 H   0  0
   -0.6764    1.5379   -3.2488 H   0  0
   -0.5194    3.5900    0.4737 H   0  0
   -0.5286    5.5586    1.7279 H   0  0
   -1.4687    7.5790    3.2599 H   0  0
    0.7839    7.2739    2.2424 H   0  0
    1.5083    7.1549    3.8814 H   0  0
    0.7567    8.6936    3.3414 H   0  0
   -2.1164    8.5869    7.4361 H   0  0
   -0.4916    9.3472    7.3423 H   0  0
   -3.4669   13.5672    7.1857 H   0  0
   -4.3305   15.5847    8.5424 H   0  0
   -1.4737    9.8439   11.4197 H   0  0
  1  2  1  0
  2  3  1  0
  2  6  1  0
  3  4  1  0
  4  5  1  0
  6  7  1  0
  7  8  2  0
  7  9  1  0
  9 10  1  0
 10 11  2  0
 10 12  1  0
 12 13  1  0
 12 14  1  0
 14 15  1  0
 15 16  2  0
 15 17  1  0
 17 18  1  0
 18 19  1  0
 19 27  1  0
 19 20  2  0
 20 24  1  0
 20 21  1  0
 21 22  2  0
 22 23  1  0
 23 24  1  0
 24 25  2  0
 25 26  1  0
 26 27  2  0
  1 28  1  0
  1 29  1  0
  1 30  1  0
  2 31  1  0
  3 32  1  0
  3 33  1  0
  5 34  1  0
  5 35  1  0
  5 36  1  0
  6 37  1  0
  9 38  1  0
 12 39  1  0
 13 40  1  0
 13 41  1  0
 13 42  1  0
 17 43  1  0
 17 44  1  0
 21 45  1  0
 22 46  1  0
 26 47  1  0
M  END
> <Name>
ZINC24824679

> <reference>
BDB50021152

> <quality>
0.694

> <status>
decoy

$$$$
ZINC22792191
  SciTegic06061311253D

 54 55  0  0  0  0            999 V2000
    5.7973    1.8149   -0.0626 C   0  0
    6.0496    3.3184    0.0672 C   0  0  2  0  0  0
    6.8854    3.7996   -1.1206 C   0  0
    6.8041    3.5985    1.3684 C   0  0
    4.7319    4.0494    0.0832 C   0  0
    3.7898    3.7905    1.0686 C   0  0
    2.5934    4.4778    1.0545 C   0  0
    2.3401    5.3770    0.1128 N   0  3
    3.2171    5.6437   -0.8461 C   0  0
    4.4347    4.9961   -0.8869 C   0  0
    1.1367    6.0449    0.1277 C   0  0
    1.1010    7.4102    0.4046 C   0  0
    2.2624    8.0868    0.6619 N   0  0
    2.2249    9.5221    0.9530 C   0  0
    3.6467   10.0293    1.2019 C   0  0
    4.4130    9.9070    0.0020 O   0  0
    5.7639   10.3558    0.1267 C   0  0
   -0.4395    8.2652    0.4237 S   0  5
   -0.0590    5.3483   -0.1372 C   0  0
   -1.1334    5.9104   -0.0085 O   0  0
   -0.0110    3.9343   -0.5715 C   0  0
    1.0750    3.4651   -1.3118 C   0  0
    1.1136    2.1462   -1.7140 C   0  0
    0.0782    1.2890   -1.3853 C   0  0
   -1.0038    1.7492   -0.6566 C   0  0
   -1.0515    3.0648   -0.2429 C   0  0
   -2.1101    0.8271   -0.3149 N   0  0
   -2.0672   -0.3356   -0.6754 O   0  0
   -3.0634    1.2309    0.3267 O   0  0
    6.7586    1.2803   -0.0741 H   0  0
    5.2547    1.6125   -0.9978 H   0  0
    5.1964    1.4682    0.7911 H   0  0
    6.3437    3.5989   -2.0567 H   0  0
    7.8477    3.2668   -1.1330 H   0  0
    7.0672    4.8805   -1.0279 H   0  0
    7.7663    3.0656    1.3575 H   0  0
    6.2040    3.2530    2.2231 H   0  0
    6.9858    4.6793    1.4623 H   0  0
    3.9944    3.0459    1.8520 H   0  0
    1.8418    4.2779    1.8324 H   0  0
    2.9710    6.3890   -1.6168 H   0  0
    5.1616    5.2276   -1.6794 H   0  0
    3.1629    7.5869    0.6509 H   0  0
    1.6110    9.6999    1.8483 H   0  0
    1.7893   10.0587    0.0972 H   0  0
    3.6111   11.0854    1.5076 H   0  0
    4.1159    9.4327    1.9981 H   0  0
    6.2362    9.7675    0.9272 H   0  0
    5.7355   11.4098    0.4401 H   0  0
    6.3159   10.2438   -0.8182 H   0  0
    1.8985    4.1456   -1.5740 H   0  0
    1.9692    1.7751   -2.2972 H   0  0
    0.1157    0.2371   -1.7049 H   0  0
   -1.9079    3.4272    0.3446 H   0  0
  1  2  1  0
  2  3  1  0
  2  4  1  0
  2  5  1  0
  5 10  2  0
  5  6  1  0
  6  7  2  0
  7  8  1  0
  8  9  2  0
  8 11  1  0
  9 10  1  0
 11 12  2  0
 11 19  1  0
 12 13  1  0
 12 18  1  0
 13 14  1  0
 14 15  1  0
 15 16  1  0
 16 17  1  0
 19 20  2  0
 19 21  1  0
 21 26  2  0
 21 22  1  0
 22 23  2  0
 23 24  1  0
 24 25  2  0
 25 26  1  0
 25 27  1  0
 27 28  2  0
 27 29  2  0
  1 30  1  0
  1 31  1  0
  1 32  1  0
  3 33  1  0
  3 34  1  0
  3 35  1  0
  4 36  1  0
  4 37  1  0
  4 38  1  0
  6 39  1  0
  7 40  1  0
  9 41  1  0
 10 42  1  0
 13 43  1  0
 14 44  1  0
 14 45  1  0
 15 46  1  0
 15 47  1  0
 17 48  1  0
 17 49  1  0
 17 50  1  0
 22 51  1  0
 23 52  1  0
 24 53  1  0
 26 54  1  0
M  CHG  2   8   1  18  -1
M  END
> <Name>
ZINC22792191

> <reference>
BDB50021152

> <quality>
0.694

> <status>
decoy

$$$$
ZINC14039250
  SciTegic06061311253D

 49 50  0  0  0  0            999 V2000
    3.5431  -13.0976   -1.0325 C   0  0
    4.8107  -12.4381   -1.0487 O   0  0
    4.8028  -11.0844   -0.9387 C   0  0
    3.5969  -10.4066   -0.8177 C   0  0
    3.5824   -9.0338   -0.7062 C   0  0
    4.7857   -8.3188   -0.7144 C   0  0
    6.0005   -9.0025   -0.8413 C   0  0
    6.0058  -10.3792   -0.9481 C   0  0
    7.1844  -11.0472   -1.0673 O   0  0
    8.3780  -10.2615   -1.0696 C   0  0
    4.7733   -6.8539   -0.5962 C   0  0
    3.5997   -6.1957   -0.4794 C   0  0
    3.5874   -4.7391   -0.3619 C   0  0
    4.6346   -4.1192   -0.3692 O   0  0
    2.4163   -4.0823   -0.2454 N   0  0
    2.4049   -2.7390   -0.1370 C   0  0
    3.8781   -1.8669   -0.1472 S   0  0
    1.2338   -2.0822   -0.0205 N   0  5
    1.2129   -0.6816   -0.0246 C   0  0
    2.0115    0.0225   -0.9160 C   0  0
    1.9900    1.4032   -0.9197 C   0  0
    1.1708    2.0869   -0.0332 C   0  0
    0.3728    1.3842    0.8577 C   0  0
    0.3932    0.0035    0.8625 C   0  0
    1.1502    3.4465   -0.0375 O   0  0
    0.2834    4.0851    0.9022 C   0  0
    0.3936    5.5805    0.7514 C   0  0
   -0.6886    6.3185    0.7339 C   0  0
    2.9593  -12.6661   -1.8589 H   0  0
    3.0565  -12.8093   -0.0891 H   0  0
    3.6308  -14.1901   -1.1257 H   0  0
    2.6507  -10.9675   -0.8109 H   0  0
    2.6256   -8.4996   -0.6108 H   0  0
    6.9484   -8.4446   -0.8559 H   0  0
    8.3739   -9.6900   -0.1297 H   0  0
    8.2761   -9.5467   -1.8995 H   0  0
    9.2883  -10.8709   -1.1692 H   0  0
    5.7199   -6.2936   -0.6029 H   0  0
    2.6531   -6.7560   -0.4727 H   0  0
    1.5300   -4.6070   -0.2392 H   0  0
    2.6611   -0.5195   -1.6190 H   0  0
    2.6226    1.9611   -1.6258 H   0  0
   -0.2764    1.9270    1.5605 H   0  0
   -0.2398   -0.5536    1.5689 H   0  0
    0.5730    3.7980    1.9238 H   0  0
   -0.7547    3.7737    0.7141 H   0  0
    1.3827    6.0523    0.6560 H   0  0
   -1.6777    5.8467    0.8293 H   0  0
   -0.6082    7.4100    0.6238 H   0  0
  1  2  1  0
  2  3  1  0
  3  8  2  0
  3  4  1  0
  4  5  2  0
  5  6  1  0
  6  7  2  0
  6 11  1  0
  7  8  1  0
  8  9  1  0
  9 10  1  0
 11 12  2  0
 12 13  1  0
 13 14  2  0
 13 15  1  0
 15 16  1  0
 16 17  2  0
 16 18  1  0
 18 19  1  0
 19 24  2  0
 19 20  1  0
 20 21  2  0
 21 22  1  0
 22 23  2  0
 22 25  1  0
 23 24  1  0
 25 26  1  0
 26 27  1  0
 27 28  2  0
  1 29  1  0
  1 30  1  0
  1 31  1  0
  4 32  1  0
  5 33  1  0
  7 34  1  0
 10 35  1  0
 10 36  1  0
 10 37  1  0
 11 38  1  0
 12 39  1  0
 15 40  1  0
 20 41  1  0
 21 42  1  0
 23 43  1  0
 24 44  1  0
 26 45  1  0
 26 46  1  0
 27 47  1  0
 28 48  1  0
 28 49  1  0
M  CHG  1  18  -1
M  END
> <Name>
ZINC14039250

> <reference>
BDB50039514

> <quality>
0.838

> <status>
decoy

$$$$
ZINC06710509
  SciTegic06061311253D

 45 46  0  0  0  0            999 V2000
   -0.2782   17.7622   -0.1820 C   0  0
   -0.0405   16.2517   -0.1289 C   0  0
    1.4622   15.9697   -0.1848 C   0  0
    1.6878   14.5362   -0.1344 O   0  0
    2.9677   14.1166   -0.1745 C   0  0
    3.8705   14.9263   -0.2494 O   0  0
    3.2726   12.6748   -0.1273 C   0  0
    4.6001   12.2376   -0.1687 C   0  0
    4.8811   10.8911   -0.1241 C   0  0
    3.8458    9.9649   -0.0378 C   0  0
    2.5230   10.3963   -0.0021 C   0  0
    2.2350   11.7416   -0.0406 C   0  0
    4.1339    8.6026    0.0072 N   0  5
    3.4602    7.7989    0.8537 C   0  0
    2.3522    8.4708    1.9726 S   0  0
    3.6587    6.4663    0.8195 N   0  0
    2.9849    5.6626    1.6660 C   0  0
    2.2002    6.1385    2.4584 O   0  0
    3.2069    4.1726    1.6276 C   0  0
    2.3848    3.5430    2.6124 O   0  0
    2.4653    2.1897    2.7099 C   0  0
    1.6948    1.5136    3.6447 C   0  0
    1.7777    0.1381    3.7419 C   0  0
    2.6285   -0.5653    2.9078 C   0  0
    3.3982    0.1073    1.9751 C   0  0
    3.3184    1.4828    1.8751 C   0  0
    2.7310   -2.2938    3.0319 Cl  0  0
    0.1355   18.1669   -1.1174 H   0  0
    0.2164   18.2426    0.6751 H   0  0
   -1.3585   17.9657   -0.1418 H   0  0
   -0.4542   15.8479    0.8069 H   0  0
   -0.5351   15.7712   -0.9859 H   0  0
    1.8765   16.3729   -1.1206 H   0  0
    1.9584   16.4486    0.6722 H   0  0
    5.4189   12.9690   -0.2368 H   0  0
    5.9252   10.5465   -0.1567 H   0  0
    1.7068    9.6612    0.0570 H   0  0
    1.1897   12.0822   -0.0032 H   0  0
    4.3254    6.0621    0.1464 H   0  0
    2.9440    3.7882    0.6311 H   0  0
    4.2639    3.9527    1.8384 H   0  0
    1.0183    2.0724    4.3081 H   0  0
    1.1669   -0.3983    4.4829 H   0  0
    4.0740   -0.4537    1.3129 H   0  0
    3.9309    2.0172    1.1340 H   0  0
  1  2  1  0
  2  3  1  0
  3  4  1  0
  4  5  1  0
  5  6  2  0
  5  7  1  0
  7 12  2  0
  7  8  1  0
  8  9  2  0
  9 10  1  0
 10 11  2  0
 10 13  1  0
 11 12  1  0
 13 14  1  0
 14 15  2  0
 14 16  1  0
 16 17  1  0
 17 18  2  0
 17 19  1  0
 19 20  1  0
 20 21  1  0
 21 26  2  0
 21 22  1  0
 22 23  2  0
 23 24  1  0
 24 25  2  0
 24 27  1  0
 25 26  1  0
  1 28  1  0
  1 29  1  0
  1 30  1  0
  2 31  1  0
  2 32  1  0
  3 33  1  0
  3 34  1  0
  8 35  1  0
  9 36  1  0
 11 37  1  0
 12 38  1  0
 16 39  1  0
 19 40  1  0
 19 41  1  0
 22 42  1  0
 23 43  1  0
 25 44  1  0
 26 45  1  0
M  CHG  1  13  -1
M  END
> <Name>
ZINC06710509

> <reference>
BDB50039514

> <quality>
0.830

> <status>
decoy

$$$$
ZINC00724566
  SciTegic06061311253D

 53 54  0  0  0  0            999 V2000
    3.4828    3.2682    2.9592 C   0  0
    2.2435    4.1581    2.8456 C   0  0
    1.1054    3.3522    2.5336 O   0  0
   -0.0863    3.9933    2.3969 C   0  0
   -0.1546    5.3648    2.5538 C   0  0
   -1.3804    6.0220    2.4193 C   0  0
   -2.5332    5.2910    2.1201 C   0  0
   -2.4582    3.9204    1.9581 C   0  0
   -1.2355    3.2680    2.0932 C   0  0
   -1.1646    1.9203    1.9339 O   0  0
   -0.9087    1.4356    0.6142 C   0  0
   -0.8645   -0.0936    0.6322 C   0  0
   -3.5797    3.2083    1.6670 O   0  0
   -4.7998    3.9417    1.5427 C   0  0
   -5.9427    2.9785    1.2157 C   0  0
   -1.4576    7.4850    2.5932 C   0  0
   -2.5245    8.0556    2.4763 O   0  0
   -0.3450    8.1889    2.8817 N   0  0
   -0.4155    9.5254    3.0406 C   0  0
   -1.9182   10.3290    2.8759 S   0  0
    0.6971   10.2294    3.3291 N   0  5
    0.6412   11.6248    3.4067 C   0  0
    1.6221   12.3956    2.7961 C   0  0
    1.5609   13.7734    2.8697 C   0  0
    0.5308   14.3853    3.5601 C   0  0
   -0.4442   13.6206    4.1740 C   0  0
   -0.3920   12.2426    4.0993 C   0  0
    0.4704   15.8888    3.6432 C   0  0
    3.6522    2.7500    2.0038 H   0  0
    3.3305    2.5257    3.7564 H   0  0
    4.3593    3.8880    3.1994 H   0  0
    2.0747    4.6757    3.8014 H   0  0
    2.3957    4.9006    2.0484 H   0  0
    0.7552    5.9385    2.7843 H   0  0
   -3.4994    5.8059    2.0136 H   0  0
   -1.7095    1.7708   -0.0614 H   0  0
    0.0570    1.8254    0.2600 H   0  0
   -1.8300   -0.4852    0.9851 H   0  0
   -0.0641   -0.4304    1.3074 H   0  0
   -0.6675   -0.4674   -0.3834 H   0  0
   -5.0157    4.4579    2.4898 H   0  0
   -4.7031    4.6823    0.7352 H   0  0
   -6.0416    2.2377    2.0228 H   0  0
   -5.7283    2.4616    0.2687 H   0  0
   -6.8823    3.5424    1.1199 H   0  0
    0.5591    7.7055    2.9807 H   0  0
    2.4468   11.9092    2.2545 H   0  0
    2.3324   14.3846    2.3786 H   0  0
   -1.2623   14.1105    4.7224 H   0  0
   -1.1679   11.6349    4.5878 H   0  0
    0.4656   16.2334    2.5986 H   0  0
    1.4335   16.1904    4.0809 H   0  0
   -0.3890   16.2683    4.2154 H   0  0
  1  2  1  0
  2  3  1  0
  3  4  1  0
  4  9  2  0
  4  5  1  0
  5  6  2  0
  6  7  1  0
  6 16  1  0
  7  8  2  0
  8  9  1  0
  8 13  1  0
  9 10  1  0
 10 11  1  0
 11 12  1  0
 13 14  1  0
 14 15  1  0
 16 17  2  0
 16 18  1  0
 18 19  1  0
 19 20  2  0
 19 21  1  0
 21 22  1  0
 22 27  2  0
 22 23  1  0
 23 24  2  0
 24 25  1  0
 25 26  2  0
 25 28  1  0
 26 27  1  0
  1 29  1  0
  1 30  1  0
  1 31  1  0
  2 32  1  0
  2 33  1  0
  5 34  1  0
  7 35  1  0
 11 36  1  0
 11 37  1  0
 12 38  1  0
 12 39  1  0
 12 40  1  0
 14 41  1  0
 14 42  1  0
 15 43  1  0
 15 44  1  0
 15 45  1  0
 18 46  1  0
 23 47  1  0
 24 48  1  0
 26 49  1  0
 27 50  1  0
 28 51  1  0
 28 52  1  0
 28 53  1  0
M  CHG  1  21  -1
M  END
> <Name>
ZINC00724566

> <reference>
BDB50039514

> <quality>
0.828

> <status>
decoy

$$$$
ZINC13624712
  SciTegic06061311253D

 52 53  0  0  0  0            999 V2000
    1.1117    2.9583    2.1785 C   0  0
    0.2376    3.2325    0.9531 C   0  0
    0.8067    2.4876   -0.2562 C   0  0
   -0.0674    2.7617   -1.4816 C   0  0
    0.4640    2.0660   -2.6110 O   0  0
   -0.1982    2.2039   -3.7868 C   0  0
   -1.3406    2.9876   -3.8552 C   0  0
   -2.0109    3.1309   -5.0536 C   0  0
   -1.5559    2.4867   -6.1928 C   0  0
   -0.4259    1.7001   -6.1422 C   0  0
    0.2655    1.5504   -4.9370 C   0  0
    1.4758    0.7105   -4.8756 C   0  0
    2.0747    0.5831   -3.8255 O   0  0
    1.9182    0.0839   -5.9839 N   0  0
    3.0245   -0.6838   -5.9278 C   0  0
    3.8679   -0.8632   -4.4488 S   0  0
    3.4668   -1.3104   -7.0361 N   0  5
    4.6768   -2.0122   -7.0071 C   0  0
    5.7783   -1.4716   -6.3541 C   0  0
    6.9744   -2.1632   -6.3185 C   0  0
    7.0862   -3.3904   -6.9402 C   0  0
    5.9874   -3.9395   -7.6031 C   0  0
    4.7787   -3.2440   -7.6345 C   0  0
    6.1045   -5.2538   -8.2703 C   0  0
    5.1465   -5.7299   -8.8474 O   0  0
    7.2735   -5.9239   -8.2386 N   0  0
    7.3895   -7.2261   -8.8997 C   0  0
    8.8086   -7.7673   -8.7148 C   0  0
    2.1371    3.3058    1.9840 H   0  0
    1.1245    1.8783    2.3868 H   0  0
    0.7031    3.4935    3.0483 H   0  0
   -0.7874    2.8844    1.1484 H   0  0
    0.2247    4.3125    0.7448 H   0  0
    1.8316    2.8356   -0.4523 H   0  0
    0.8194    1.4072   -0.0501 H   0  0
   -1.0924    2.4136   -1.2862 H   0  0
   -0.0803    3.8417   -1.6900 H   0  0
   -1.7130    3.4956   -2.9534 H   0  0
   -2.9116    3.7603   -5.1043 H   0  0
   -2.0994    2.6038   -7.1420 H   0  0
   -0.0684    1.1906   -7.0492 H   0  0
    1.4108    0.1918   -6.8737 H   0  0
    5.6978   -0.4901   -5.8640 H   0  0
    7.8402   -1.7341   -5.7929 H   0  0
    8.0412   -3.9357   -6.9133 H   0  0
    3.9093   -3.6716   -8.1554 H   0  0
    8.0853   -5.5205   -7.7496 H   0  0
    7.1777   -7.1137   -9.9733 H   0  0
    6.6690   -7.9285   -8.4554 H   0  0
    9.0217   -7.8814   -7.6417 H   0  0
    9.5304   -7.0659   -9.1588 H   0  0
    8.8964   -8.7451   -9.2110 H   0  0
  1  2  1  0
  2  3  1  0
  3  4  1  0
  4  5  1  0
  5  6  1  0
  6 11  2  0
  6  7  1  0
  7  8  2  0
  8  9  1  0
  9 10  2  0
 10 11  1  0
 11 12  1  0
 12 13  2  0
 12 14  1  0
 14 15  1  0
 15 16  2  0
 15 17  1  0
 17 18  1  0
 18 23  2  0
 18 19  1  0
 19 20  2  0
 20 21  1  0
 21 22  2  0
 22 23  1  0
 22 24  1  0
 24 25  2  0
 24 26  1  0
 26 27  1  0
 27 28  1  0
  1 29  1  0
  1 30  1  0
  1 31  1  0
  2 32  1  0
  2 33  1  0
  3 34  1  0
  3 35  1  0
  4 36  1  0
  4 37  1  0
  7 38  1  0
  8 39  1  0
  9 40  1  0
 10 41  1  0
 14 42  1  0
 19 43  1  0
 20 44  1  0
 21 45  1  0
 23 46  1  0
 26 47  1  0
 27 48  1  0
 27 49  1  0
 28 50  1  0
 28 51  1  0
 28 52  1  0
M  CHG  1  17  -1
M  END
> <Name>
ZINC13624712

> <reference>
BDB50039514

> <quality>
0.827

> <status>
decoy

$$$$
ZINC07366115
  SciTegic06061311253D

 51 52  0  0  0  0            999 V2000
    2.4589  -13.0165    2.6498 C   0  0
    3.1967  -12.5033    1.4116 C   0  0
    3.1292  -11.0533    1.3743 O   0  0
    3.7345  -10.4391    0.3388 C   0  0
    4.3033  -11.0972   -0.5097 O   0  0
    3.7068   -8.9686    0.2355 C   0  0
    4.3344   -8.3297   -0.8382 C   0  0
    4.3062   -6.9569   -0.9318 C   0  0
    3.6535   -6.2048    0.0405 C   0  0
    3.0322   -6.8372    1.1134 C   0  0
    3.0524   -8.2099    1.2107 C   0  0
    3.6269   -4.8153   -0.0574 N   0  5
    2.4924   -4.1419    0.2181 C   0  0
    1.0477   -4.9984    0.5500 S   0  0
    2.4952   -2.7942    0.2324 N   0  0
    1.3607   -2.1208    0.5080 C   0  0
    0.3349   -2.7290    0.7436 O   0  0
    1.3637   -0.6457    0.5236 C   0  0
    0.1882    0.0545    0.8092 C   0  0
    0.1955    1.4313    0.8232 C   0  0
    1.3697    2.1249    0.5539 C   0  0
    2.5409    1.4323    0.2695 C   0  0
    2.5423    0.0555    0.2534 C   0  0
    1.3726    3.4818    0.5687 O   0  0
    2.6132    4.1311    0.2832 C   0  0
    2.4214    5.6477    0.3458 C   0  0  1  0  0  0
    3.7732    6.3407    0.1638 C   0  0
    1.4687    6.0877   -0.7676 C   0  0
    1.4062  -12.7001    2.6080 H   0  0
    2.9292  -12.6048    3.5550 H   0  0
    2.5097  -14.1149    2.6787 H   0  0
    4.2493  -12.8199    1.4544 H   0  0
    2.7265  -12.9149    0.5064 H   0  0
    4.8501   -8.9236   -1.6072 H   0  0
    4.8001   -6.4535   -1.7760 H   0  0
    2.5244   -6.2392    1.8845 H   0  0
    2.5543   -8.7095    2.0547 H   0  0
    3.3644   -2.2789    0.0327 H   0  0
   -0.7414   -0.4936    1.0225 H   0  0
   -0.7292    1.9832    1.0478 H   0  0
    3.4679    1.9850    0.0570 H   0  0
    3.4695   -0.4918    0.0282 H   0  0
    2.9541    3.8466   -0.7232 H   0  0
    3.3660    3.8263    1.0251 H   0  0
    1.9965    5.9235    1.3222 H   0  0
    4.1989    6.0657   -0.8125 H   0  0
    4.4588    6.0252    0.9641 H   0  0
    3.6360    7.4312    0.2087 H   0  0
    0.4963    5.5902   -0.6374 H   0  0
    1.8928    5.8125   -1.7445 H   0  0
    1.3304    7.1781   -0.7232 H   0  0
  1  2  1  0
  2  3  1  0
  3  4  1  0
  4  5  2  0
  4  6  1  0
  6 11  2  0
  6  7  1  0
  7  8  2  0
  8  9  1  0
  9 10  2  0
  9 12  1  0
 10 11  1  0
 12 13  1  0
 13 14  2  0
 13 15  1  0
 15 16  1  0
 16 17  2  0
 16 18  1  0
 18 23  2  0
 18 19  1  0
 19 20  2  0
 20 21  1  0
 21 22  2  0
 21 24  1  0
 22 23  1  0
 24 25  1  0
 25 26  1  0
 26 27  1  0
 26 28  1  0
  1 29  1  0
  1 30  1  0
  1 31  1  0
  2 32  1  0
  2 33  1  0
  7 34  1  0
  8 35  1  0
 10 36  1  0
 11 37  1  0
 15 38  1  0
 19 39  1  0
 20 40  1  0
 22 41  1  0
 23 42  1  0
 25 43  1  0
 25 44  1  0
 26 45  1  0
 27 46  1  0
 27 47  1  0
 27 48  1  0
 28 49  1  0
 28 50  1  0
 28 51  1  0
M  CHG  1  12  -1
M  END
> <Name>
ZINC07366115

> <reference>
BDB50039514

> <quality>
0.812

> <status>
decoy

$$$$
ZINC28779774
  SciTegic06061311253D

 55 57  0  0  1  0            999 V2000
    2.0969    8.2962   -1.1771 C   0  0
    1.4876    8.3672    0.2246 C   0  0  2  0  0  0
    1.7064    9.7433    0.7984 C   0  0
    2.6601    9.9562    1.5171 O   0  0
    0.8424   10.7376    0.5130 N   0  0
    0.9924   11.9934    1.1207 C   0  0
    2.2601   12.4846    1.3956 C   0  0
    2.4079   13.7214    1.9936 C   0  0
    1.2896   14.4745    2.3203 C   0  0
    0.0201   13.9879    2.0470 C   0  0
   -0.1313   12.7505    1.4432 C   0  0
   -1.3750   12.2738    1.1697 O   0  0
   -2.4813   13.1042    1.5280 C   0  0
    1.4384   15.6912    2.9087 O   0  0
    2.7745   16.1308    3.1609 C   0  0
    2.2795    7.1365    1.2897 S   0  0
    1.7521    5.6566    0.4919 C   0  0
    2.0509    4.3793    0.8706 N   0  0
    1.4311    3.5685   -0.0398 C   0  0
    0.8143    4.3399   -0.8895 N   0  0
    0.9975    5.5736   -0.5792 N   0  5
    1.4569    2.0618   -0.0569 C   0  0
    0.0234    1.5271   -0.0496 C   0  0
    0.0496   -0.0026   -0.0670 C   0  0  2  0  0  0
    0.5929   -0.5065   -1.4201 C   0  0
   -0.2472   -1.7730   -1.7189 C   0  0
   -1.6557   -1.3765   -1.2109 C   0  0
   -1.3801   -0.5558    0.0660 C   0  0
    3.1761    8.5014   -1.1197 H   0  0
    1.6161    9.0436   -1.8253 H   0  0
    1.9375    7.2919   -1.5965 H   0  0
    0.4086    8.1617    0.1662 H   0  0
    0.0720   10.5756   -0.1512 H   0  0
    3.1483   11.8892    1.1374 H   0  0
    3.4139   14.1095    2.2110 H   0  0
   -0.8661   14.5842    2.3096 H   0  0
   -2.3321   14.0606    1.0054 H   0  0
   -2.3900   13.2920    2.6080 H   0  0
   -3.4519   12.6520    1.2761 H   0  0
    3.2896   16.1281    2.1890 H   0  0
    3.2401   15.3591    3.7916 H   0  0
    2.8137   17.1214    3.6374 H   0  0
    1.9728    1.7140   -0.9641 H   0  0
    1.9895    1.6930    0.8321 H   0  0
   -0.5105    1.8941   -0.9386 H   0  0
   -0.4929    1.8741    0.8576 H   0  0
    0.6847   -0.3379    0.7662 H   0  0
    1.6563   -0.7720   -1.3271 H   0  0
    0.4261    0.2504   -2.2007 H   0  0
   -0.2734   -1.9666   -2.8014 H   0  0
    0.1365   -2.6302   -1.1462 H   0  0
   -2.2371   -2.2768   -0.9632 H   0  0
   -2.1659   -0.7519   -1.9590 H   0  0
   -2.0979    0.2747    0.1373 H   0  0
   -1.4479   -1.2073    0.9498 H   0  0
  1  2  1  0
  2  3  1  0
  2 16  1  0
  3  4  2  0
  3  5  1  0
  5  6  1  0
  6 11  2  0
  6  7  1  0
  7  8  2  0
  8  9  1  0
  9 10  2  0
  9 14  1  0
 10 11  1  0
 11 12  1  0
 12 13  1  0
 14 15  1  0
 16 17  1  0
 17 18  2  0
 17 21  1  0
 18 19  1  0
 19 22  1  0
 19 20  2  0
 20 21  1  0
 22 23  1  0
 23 24  1  0
 24 28  1  0
 24 25  1  0
 25 26  1  0
 26 27  1  0
 27 28  1  0
  1 29  1  0
  1 30  1  0
  1 31  1  0
  2 32  1  0
  5 33  1  0
  7 34  1  0
  8 35  1  0
 10 36  1  0
 13 37  1  0
 13 38  1  0
 13 39  1  0
 15 40  1  0
 15 41  1  0
 15 42  1  0
 22 43  1  0
 22 44  1  0
 23 45  1  0
 23 46  1  0
 24 47  1  0
 25 48  1  0
 25 49  1  0
 26 50  1  0
 26 51  1  0
 27 52  1  0
 27 53  1  0
 28 54  1  0
 28 55  1  0
M  CHG  1  21  -1
M  END
> <Name>
ZINC28779774

> <reference>
BDB50039514

> <quality>
0.807

> <status>
decoy

$$$$
ZINC13007337
  SciTegic06061311253D

 60 61  0  0  0  0            999 V2000
    0.0429   -2.0516    1.4332 C   0  0
    0.0221   -0.5218    1.4416 C   0  0
    0.0021   -0.0041    0.0020 C   0  0
   -0.0178    1.4608    0.0101 N   0  0
    1.0813    2.2683    0.0039 C   0  0
    0.6701    3.5504    0.0147 C   0  0
   -0.7476    3.5402    0.0282 C   0  0
   -1.1383    2.2380    0.0190 C   0  0
   -2.5608    1.7405    0.0223 C   0  0
   -1.6382    4.7284    0.0427 C   0  0
   -1.1229    5.9936    0.0497 C   0  0
   -2.6232    6.9637    0.0631 S   0  0
   -3.7507    5.6436    0.0674 C   0  0
   -2.9564    4.5928    0.0546 N   0  0
   -5.1396    5.6850    0.0815 N   0  0
   -5.7783    6.8717    0.0933 C   0  0
   -5.1409    7.9035    0.0917 O   0  0
   -7.2846    6.9166    0.1086 C   0  0
   -7.7513    8.3736    0.1200 C   0  0
   -9.2805    8.4192    0.1356 C   0  0
   -9.7274    9.8143    0.1464 N   0  0
  -11.0445   10.1000    0.1610 C   0  0
  -11.8597    9.2020    0.1650 O   0  0
  -11.5042   11.5351    0.1721 C   0  0  1  0  0  0
  -13.0334   11.5807    0.1877 C   0  0
  -10.9604   12.2351    1.4192 C   0  0
  -10.9855   12.2465   -1.0791 C   0  0
    2.5149    1.8038   -0.0115 C   0  0
    0.9410   -2.4042    0.9050 H   0  0
   -0.8546   -2.4287    0.9211 H   0  0
    0.0573   -2.4245    2.4680 H   0  0
   -0.8765   -0.1701    1.9697 H   0  0
    0.9196   -0.1446    1.9537 H   0  0
    0.9006   -0.3552   -0.5266 H   0  0
   -0.8954   -0.3794   -0.5114 H   0  0
    1.3151    4.4414    0.0133 H   0  0
   -2.5794    1.0731    0.8965 H   0  0
   -2.5868    1.0826   -0.8589 H   0  0
   -3.3471    2.5097    0.0298 H   0  0
   -0.0737    6.3240    0.0477 H   0  0
   -5.6810    4.8087    0.0829 H   0  0
   -7.6757    6.4139   -0.7882 H   0  0
   -7.6587    6.4055    1.0080 H   0  0
   -7.3608    8.8768    1.0168 H   0  0
   -7.3791    8.8861   -0.7794 H   0  0
   -9.6716    7.9164   -0.7612 H   0  0
   -9.6545    7.9082    1.0350 H   0  0
   -9.0350   10.5769    0.1428 H   0  0
  -13.4073   11.0697    1.0872 H   0  0
  -13.4254   11.0778   -0.7086 H   0  0
  -13.3696   12.6280    0.1958 H   0  0
   -9.8609   12.2031    1.4089 H   0  0
  -11.3330   11.7245    2.3194 H   0  0
  -11.2956   13.2828    1.4280 H   0  0
  -11.3761   11.7441   -1.9763 H   0  0
   -9.8860   12.2145   -1.0911 H   0  0
  -11.3207   13.2941   -1.0716 H   0  0
    2.5465    1.1466   -0.8930 H   0  0
    2.5627    1.1381    0.8629 H   0  0
    3.2819    2.5923   -0.0147 H   0  0
  1  2  1  0
  2  3  1  0
  3  4  1  0
  4  8  1  0
  4  5  1  0
  5  6  2  0
  5 28  1  0
  6  7  1  0
  7  8  2  0
  7 10  1  0
  8  9  1  0
 10 14  1  0
 10 11  2  0
 11 12  1  0
 12 13  1  0
 13 14  2  0
 13 15  1  0
 15 16  1  0
 16 17  2  0
 16 18  1  0
 18 19  1  0
 19 20  1  0
 20 21  1  0
 21 22  1  0
 22 23  2  0
 22 24  1  0
 24 25  1  0
 24 26  1  0
 24 27  1  0
  1 29  1  0
  1 30  1  0
  1 31  1  0
  2 32  1  0
  2 33  1  0
  3 34  1  0
  3 35  1  0
  6 36  1  0
  9 37  1  0
  9 38  1  0
  9 39  1  0
 11 40  1  0
 15 41  1  0
 18 42  1  0
 18 43  1  0
 19 44  1  0
 19 45  1  0
 20 46  1  0
 20 47  1  0
 21 48  1  0
 25 49  1  0
 25 50  1  0
 25 51  1  0
 26 52  1  0
 26 53  1  0
 26 54  1  0
 27 55  1  0
 27 56  1  0
 27 57  1  0
 28 58  1  0
 28 59  1  0
 28 60  1  0
M  END
> <Name>
ZINC13007337

> <reference>
BDB50039514

> <quality>
0.805

> <status>
decoy

$$$$
ZINC04591924
  SciTegic06061311253D

 55 56  0  0  1  0            999 V2000
   -6.7399    0.2492   -6.3019 C   0  0
   -5.4782   -0.2116   -5.5693 C   0  0
   -5.5498    0.2268   -4.1052 C   0  0
   -4.2881   -0.2341   -3.3726 C   0  0
   -4.3597    0.2043   -1.9085 C   0  0
   -3.1169   -0.2496   -1.1869 C   0  0
   -2.2586   -0.8633   -1.7848 O   0  0
   -2.9594    0.0265    0.1229 N   0  0
   -1.7097   -0.3268    0.8008 C   0  0  1  0  0  0
   -0.7573    0.8703    0.7709 C   0  0  1  0  0  0
   -0.2977    1.1206   -0.6668 C   0  0
   -1.4807    2.1109    1.2984 C   0  0
   -1.7727    1.9354    2.7900 C   0  0
   -2.0023   -0.7003    2.2312 C   0  0
   -3.1368   -0.6350    2.6550 O   0  0
   -1.0033   -1.1068    3.0394 N   0  0
   -1.2862   -1.5441    4.3277 C   0  0
   -2.4488   -1.6374    4.9602 N   0  0
   -2.5313   -2.0654    6.1438 N   0  0
   -1.4583   -2.4364    6.8316 C   0  0
   -0.1847   -2.1347    5.6098 S   0  0
   -1.3467   -2.9514    8.2128 C   0  0
   -0.0972   -3.2880    8.7359 C   0  0
    0.0017   -3.7643   10.0264 C   0  0
   -1.1376   -3.9176   10.8003 C   0  0
   -2.3812   -3.5895   10.2842 C   0  0
   -2.4910   -3.1081    8.9964 C   0  0
   -1.0356   -4.3891   12.0622 F   0  0
   -6.8147    1.3455   -6.2514 H   0  0
   -7.6251   -0.2003   -5.8282 H   0  0
   -6.6891   -0.0657   -7.3546 H   0  0
   -5.4043   -1.3079   -5.6200 H   0  0
   -4.5930    0.2379   -6.0430 H   0  0
   -5.6232    1.3231   -4.0537 H   0  0
   -6.4339   -0.2227   -3.6295 H   0  0
   -4.2143   -1.3305   -3.4233 H   0  0
   -3.4029    0.2153   -3.8463 H   0  0
   -5.2438   -0.2452   -1.4328 H   0  0
   -4.4332    1.3006   -1.8571 H   0  0
   -3.7177    0.4859    0.6472 H   0  0
   -1.2425   -1.1800    0.2873 H   0  0
    0.1172    0.6590    1.4038 H   0  0
   -1.1715    1.3323   -1.3006 H   0  0
    0.2229    0.2292   -1.0469 H   0  0
    0.3871    1.9812   -0.6890 H   0  0
   -2.4269    2.2444    0.7535 H   0  0
   -0.8449    2.9964    1.1515 H   0  0
   -0.8274    1.8029    3.3366 H   0  0
   -2.4086    1.0502    2.9385 H   0  0
   -2.2928    2.8271    3.1699 H   0  0
   -0.0302   -1.0933    2.7022 H   0  0
    0.8070   -3.1736    8.1200 H   0  0
    0.9867   -4.0230   10.4422 H   0  0
   -3.2824   -3.7132   10.9028 H   0  0
   -3.4786   -2.8481    8.5876 H   0  0
  1  2  1  0
  2  3  1  0
  3  4  1  0
  4  5  1  0
  5  6  1  0
  6  7  2  0
  6  8  1  0
  8  9  1  0
  9 10  1  0
  9 14  1  0
 10 11  1  0
 10 12  1  0
 12 13  1  0
 14 15  2  0
 14 16  1  0
 16 17  1  0
 17 21  1  0
 17 18  2  0
 18 19  1  0
 19 20  2  0
 20 21  1  0
 20 22  1  0
 22 27  2  0
 22 23  1  0
 23 24  2  0
 24 25  1  0
 25 26  2  0
 25 28  1  0
 26 27  1  0
  1 29  1  0
  1 30  1  0
  1 31  1  0
  2 32  1  0
  2 33  1  0
  3 34  1  0
  3 35  1  0
  4 36  1  0
  4 37  1  0
  5 38  1  0
  5 39  1  0
  8 40  1  0
  9 41  1  0
 10 42  1  0
 11 43  1  0
 11 44  1  0
 11 45  1  0
 12 46  1  0
 12 47  1  0
 13 48  1  0
 13 49  1  0
 13 50  1  0
 16 51  1  0
 23 52  1  0
 24 53  1  0
 26 54  1  0
 27 55  1  0
M  END
> <Name>
ZINC04591924

> <reference>
BDB50039514

> <quality>
0.805

> <status>
decoy

$$$$
ZINC05237063
  SciTegic06061311253D

 48 49  0  0  0  0            999 V2000
   -2.7294    1.7382    6.1980 C   0  0
   -3.5551    2.4856    5.1490 C   0  0
   -2.9253    2.3639    3.8720 O   0  0
   -3.5356    2.9757    2.8218 C   0  0
   -4.7117    3.6747    3.0179 C   0  0
   -5.3367    4.3022    1.9355 C   0  0
   -4.7680    4.2186    0.6605 C   0  0
   -3.5916    3.5239    0.4752 C   0  0
   -2.9754    2.8971    1.5487 C   0  0
   -1.8184    2.2087    1.3586 O   0  0
   -1.2988    2.1681    0.0280 C   0  0
   -0.0224    1.3671    0.0114 C   0  0
   -0.0652    0.0032   -0.2111 C   0  0
    1.1056   -0.7312   -0.2325 C   0  0
    2.3200   -0.1024   -0.0311 C   0  0
    2.3634    1.2621    0.1921 C   0  0
    1.1911    1.9969    0.2130 C   0  0
    3.8882    2.0526    0.4446 Cl  0  0
   -6.5887    5.0484    2.1376 C   0  0
   -7.2366    5.5265    1.1102 N   0  0
   -6.8128    5.2925   -0.0855 N   0  0
   -7.4671    5.7753   -1.1230 C   0  0
   -7.0158    5.5262   -2.3960 N   0  0
   -7.7430    6.0628   -3.5490 C   0  0
   -7.0461    5.6488   -4.8194 C   0  0
   -7.7097    5.0136   -5.7534 C   0  0
   -8.9206    6.7403   -0.8766 S   0  5
   -1.7186    2.1694    6.2459 H   0  0
   -2.6613    0.6752    5.9234 H   0  0
   -3.2136    1.8314    7.1813 H   0  0
   -4.5656    2.0536    5.1016 H   0  0
   -3.6233    3.5486    5.4236 H   0  0
   -5.1550    3.7373    4.0227 H   0  0
   -5.2591    4.7069   -0.1941 H   0  0
   -3.1404    3.4664   -0.5263 H   0  0
   -2.0355    1.6968   -0.6393 H   0  0
   -1.0929    3.1918   -0.3178 H   0  0
   -1.0314   -0.4977   -0.3712 H   0  0
    1.0709   -1.8163   -0.4098 H   0  0
    3.2517   -0.6869   -0.0483 H   0  0
    1.2251    3.0820    0.3900 H   0  0
   -6.9787    5.2033    3.1544 H   0  0
   -6.1661    4.9621   -2.5400 H   0  0
   -7.7706    7.1608   -3.4879 H   0  0
   -8.7703    5.6696   -3.5501 H   0  0
   -5.9802    5.8800   -4.9625 H   0  0
   -8.7756    4.7824   -5.6104 H   0  0
   -7.2010    4.7114   -6.6807 H   0  0
  1  2  1  0
  2  3  1  0
  3  4  1  0
  4  9  2  0
  4  5  1  0
  5  6  2  0
  6  7  1  0
  6 19  1  0
  7  8  2  0
  8  9  1  0
  9 10  1  0
 10 11  1  0
 11 12  1  0
 12 17  2  0
 12 13  1  0
 13 14  2  0
 14 15  1  0
 15 16  2  0
 16 17  1  0
 16 18  1  0
 19 20  2  0
 20 21  1  0
 21 22  2  0
 22 23  1  0
 22 27  1  0
 23 24  1  0
 24 25  1  0
 25 26  2  0
  1 28  1  0
  1 29  1  0
  1 30  1  0
  2 31  1  0
  2 32  1  0
  5 33  1  0
  7 34  1  0
  8 35  1  0
 11 36  1  0
 11 37  1  0
 13 38  1  0
 14 39  1  0
 15 40  1  0
 17 41  1  0
 19 42  1  0
 23 43  1  0
 24 44  1  0
 24 45  1  0
 25 46  1  0
 26 47  1  0
 26 48  1  0
M  CHG  1  27  -1
M  END
> <Name>
ZINC05237063

> <reference>
BDB50039514

> <quality>
0.801

> <status>
decoy

$$$$
ZINC13618357
  SciTegic06061311253D

 52 53  0  0  0  0            999 V2000
  -11.2027   -4.8001   -1.7412 C   0  0
   -9.9624   -3.9043   -1.7527 C   0  0
   -9.7766   -3.2728   -0.3716 C   0  0
   -8.5891   -2.4150   -0.3826 N   0  0
   -8.2270   -1.7510    0.7331 C   0  0
   -8.8860   -1.8641    1.7486 O   0  0
   -7.0308   -0.8869    0.7220 C   0  0
   -6.6539   -0.1978    1.8780 C   0  0
   -5.5373    0.6071    1.8645 C   0  0
   -4.7840    0.7350    0.7014 C   0  0
   -5.1597    0.0546   -0.4529 C   0  0
   -6.2720   -0.7563   -0.4445 C   0  0
   -3.6541    1.5506    0.6911 N   0  5
   -2.5086    1.1080    0.1359 C   0  0
   -2.4652   -0.4204   -0.6342 S   0  0
   -1.3971    1.8686    0.1870 N   0  0
   -0.2516    1.4260   -0.3682 C   0  0
   -0.2208    0.3411   -0.9149 O   0  0
    0.9656    2.2627   -0.3176 C   0  0
    0.9316    3.5122    0.3049 C   0  0
    2.0710    4.2885    0.3545 C   0  0
    3.2455    3.8378   -0.2199 C   0  0
    3.2877    2.5993   -0.8455 C   0  0
    2.1514    1.8095   -0.8965 C   0  0
    4.4448    2.1619   -1.4086 O   0  0
    5.5302    3.0897   -1.4649 C   0  0  1  0  0  0
    6.3079    3.0453   -0.1480 C   0  0
    6.4613    2.7159   -2.6200 C   0  0
  -12.0889   -4.1980   -1.4919 H   0  0
  -11.0762   -5.5936   -0.9900 H   0  0
  -11.3369   -5.2545   -2.7339 H   0  0
   -9.0767   -4.5073   -2.0017 H   0  0
  -10.0888   -3.1107   -2.5039 H   0  0
  -10.6618   -2.6694   -0.1221 H   0  0
   -9.6488   -4.0650    0.3808 H   0  0
   -8.0309   -2.3193   -1.2429 H   0  0
   -7.2489   -0.2985    2.7977 H   0  0
   -5.2401    1.1498    2.7740 H   0  0
   -4.5672    0.1649   -1.3731 H   0  0
   -6.5633   -1.3009   -1.3548 H   0  0
   -1.4231    2.7881    0.6504 H   0  0
   -0.0031    3.8773    0.7555 H   0  0
    2.0452    5.2690    0.8525 H   0  0
    4.1497    4.4631   -0.1809 H   0  0
    2.1836    0.8279   -1.3919 H   0  0
    5.1371    4.1046   -1.6246 H   0  0
    6.7016    2.0308    0.0125 H   0  0
    5.6393    3.3142    0.6831 H   0  0
    7.1436    3.7593   -0.1907 H   0  0
    5.9031    2.7478   -3.5673 H   0  0
    6.8551    1.7012   -2.4612 H   0  0
    7.2971    3.4297   -2.6639 H   0  0
  1  2  1  0
  2  3  1  0
  3  4  1  0
  4  5  1  0
  5  6  2  0
  5  7  1  0
  7 12  2  0
  7  8  1  0
  8  9  2  0
  9 10  1  0
 10 11  2  0
 10 13  1  0
 11 12  1  0
 13 14  1  0
 14 15  2  0
 14 16  1  0
 16 17  1  0
 17 18  2  0
 17 19  1  0
 19 24  2  0
 19 20  1  0
 20 21  2  0
 21 22  1  0
 22 23  2  0
 23 24  1  0
 23 25  1  0
 25 26  1  0
 26 27  1  0
 26 28  1  0
  1 29  1  0
  1 30  1  0
  1 31  1  0
  2 32  1  0
  2 33  1  0
  3 34  1  0
  3 35  1  0
  4 36  1  0
  8 37  1  0
  9 38  1  0
 11 39  1  0
 12 40  1  0
 16 41  1  0
 20 42  1  0
 21 43  1  0
 22 44  1  0
 24 45  1  0
 26 46  1  0
 27 47  1  0
 27 48  1  0
 27 49  1  0
 28 50  1  0
 28 51  1  0
 28 52  1  0
M  CHG  1  13  -1
M  END
> <Name>
ZINC13618357

> <reference>
BDB50039514

> <quality>
0.801

> <status>
decoy

$$$$
ZINC22148199
  SciTegic06061311253D

 54 55  0  0  0  0            999 V2000
   -0.6232    1.2978   -1.4888 C   0  0
    0.1582    0.7495   -0.2931 C   0  0
   -0.3873    1.3638    0.9976 C   0  0
    0.3823    0.8237    2.1753 C   0  0
    1.5096    1.3227    2.7478 C   0  0
    2.0582    0.6733    3.8248 C   0  0
    1.4131   -0.4724    4.2669 C   0  0
    0.0400   -0.5803    3.1329 S   0  0
    1.7645   -1.3588    5.3777 C   0  0
    2.7467   -1.1243    6.0557 O   0  0
    0.9989   -2.4358    5.6493 O   0  0
    1.4072   -3.2703    6.7652 C   0  0
    0.4399   -4.4160    6.9160 C   0  0
   -0.5009   -4.5190    6.1577 O   0  0
    0.6204   -5.3261    7.8936 N   0  0
   -0.3199   -6.4398    8.0402 C   0  0
    0.1039   -7.3060    9.1983 C   0  0
    0.9629   -8.3687    8.9869 C   0  0
    1.3570   -9.1615   10.0470 C   0  0
    0.8816   -8.8965   11.3246 C   0  0
    0.0149   -7.8316   11.5327 C   0  0
   -0.3716   -7.0397   10.4692 C   0  0
    1.2755   -9.7004   12.4000 N   0  0
    0.4205   -9.9339   13.4153 C   0  0
   -0.7206   -9.5278   13.3528 O   0  0
    0.8824  -10.6997   14.6283 C   0  0
    2.1493    2.5751    2.2062 C   0  0
    1.4734    3.8011    2.8235 C   0  0
   -0.5137    2.3916   -1.5293 H   0  0
   -1.6873    1.0401   -1.3821 H   0  0
   -0.2315    0.8565   -2.4172 H   0  0
    0.0479   -0.3442   -0.2532 H   0  0
    1.2223    1.0071   -0.3997 H   0  0
   -0.2769    2.4575    0.9585 H   0  0
   -1.4512    1.1063    1.1065 H   0  0
    2.9696    1.0449    4.3161 H   0  0
    1.4132   -2.6725    7.6886 H   0  0
    2.4165   -3.6655    6.5777 H   0  0
    1.4195   -5.2386    8.5376 H   0  0
   -0.3265   -7.0394    7.1180 H   0  0
   -1.3293   -6.0453    8.2283 H   0  0
    1.3328   -8.5829    7.9734 H   0  0
    2.0467  -10.0019    9.8795 H   0  0
   -0.3634   -7.6190   12.5435 H   0  0
   -1.0584   -6.1963   10.6333 H   0  0
    2.2188  -10.1137   12.4157 H   0  0
    1.7518  -10.1418   15.0064 H   0  0
    1.2539  -11.6588   14.2383 H   0  0
    0.1024  -10.8308   15.3927 H   0  0
    3.2194    2.5800    2.4608 H   0  0
    2.0324    2.6045    1.1128 H   0  0
    1.5904    3.7739    3.9169 H   0  0
    0.4031    3.7977    2.5697 H   0  0
    1.9399    4.7156    2.4286 H   0  0
  1  2  1  0
  2  3  1  0
  3  4  1  0
  4  8  1  0
  4  5  2  0
  5  6  1  0
  5 27  1  0
  6  7  2  0
  7  8  1  0
  7  9  1  0
  9 10  2  0
  9 11  1  0
 11 12  1  0
 12 13  1  0
 13 14  2  0
 13 15  1  0
 15 16  1  0
 16 17  1  0
 17 22  2  0
 17 18  1  0
 18 19  2  0
 19 20  1  0
 20 21  2  0
 20 23  1  0
 21 22  1  0
 23 24  1  0
 24 25  2  0
 24 26  1  0
 27 28  1  0
  1 29  1  0
  1 30  1  0
  1 31  1  0
  2 32  1  0
  2 33  1  0
  3 34  1  0
  3 35  1  0
  6 36  1  0
 12 37  1  0
 12 38  1  0
 15 39  1  0
 16 40  1  0
 16 41  1  0
 18 42  1  0
 19 43  1  0
 21 44  1  0
 22 45  1  0
 23 46  1  0
 26 47  1  0
 26 48  1  0
 26 49  1  0
 27 50  1  0
 27 51  1  0
 28 52  1  0
 28 53  1  0
 28 54  1  0
M  END
> <Name>
ZINC22148199

> <reference>
BDB50039514

> <quality>
0.799

> <status>
decoy

$$$$
ZINC05811335
  SciTegic06061311253D

 65 66  0  0  1  0            999 V2000
    1.5913   -3.3444    1.7125 C   0  0
    1.3598   -2.6722    3.0413 C   0  0
    1.0996   -1.4042    3.0429 C   0  0
    0.8510   -0.5984    4.2842 C   0  0  1  0  0  0
    0.5359   -1.5255    5.4601 C   0  0
    1.6075   -2.6218    5.5143 C   0  0
    1.4504   -3.5135    4.2806 C   0  0
    2.0965    0.2285    4.6099 C   0  0
   -0.3342    0.3405    4.0505 C   0  0
    1.0362   -0.6942    1.7151 C   0  0
   -0.4154   -0.6401    1.2345 C   0  0
   -0.4787    0.0698   -0.0933 C   0  0
   -0.4643   -0.6205   -1.2065 C   0  0
   -0.4301    0.0915   -2.5343 C   0  0
    0.7611   -0.4116   -3.3522 C   0  0
    0.7953    0.3004   -4.6800 C   0  0
    0.2087   -0.2474   -5.7462 C   0  0
   -0.6130   -1.5014   -5.5930 C   0  0
   -2.0137   -1.2659   -6.1618 C   0  0  2  0  0  0
   -2.8726   -2.4759   -5.8988 C   0  0
   -3.9512   -2.5278   -5.1214 C   0  0
   -4.4987   -3.8869   -5.1336 C   0  0
   -5.4836   -4.2477   -4.5197 O   0  0
   -3.7496   -4.6767   -5.9256 O   0  0
   -2.6769   -3.8597   -6.4729 C   0  5
   -1.4094   -4.3839   -6.0723 O   0  0
   -1.9244   -1.0422   -7.5704 O   0  0
    1.4714    1.5918   -4.8001 C   0  0
    2.0047    2.0898   -3.8307 O   0  0
   -0.5588    1.5740   -0.1404 C   0  0
    0.8580   -4.1626    1.6606 H   0  0
    2.5898   -3.8011    1.7794 H   0  0
    1.5069   -2.6588    0.8565 H   0  0
    0.5492   -0.9504    6.3977 H   0  0
   -0.4534   -1.9842    5.3153 H   0  0
    1.4743   -3.2251    6.4244 H   0  0
    2.6068   -2.1619    5.5119 H   0  0
    2.3180   -4.1854    4.2041 H   0  0
    0.5354   -4.1158    4.3805 H   0  0
    2.3186    0.9061    3.7723 H   0  0
    2.9520   -0.4430    4.7749 H   0  0
    1.9161    0.8199    5.5197 H   0  0
   -1.2310   -0.2502    3.8121 H   0  0
   -0.1084    1.0179    3.2137 H   0  0
   -0.5179    0.9321    4.9595 H   0  0
    1.4230    0.3294    1.8276 H   0  0
    1.6457   -1.2376    0.9780 H   0  0
   -1.0263   -0.0959    1.9699 H   0  0
   -0.8027   -1.6634    1.1214 H   0  0
   -0.4772   -1.7199   -1.1721 H   0  0
   -1.3621   -0.1101   -3.0827 H   0  0
   -0.3290    1.1742   -2.3685 H   0  0
    1.6935   -0.2099   -2.8045 H   0  0
    0.6611   -1.4941   -3.5199 H   0  0
    0.3250    0.2164   -6.7369 H   0  0
   -0.1300   -2.3254   -6.1387 H   0  0
   -0.6900   -1.7627   -4.5273 H   0  0
   -2.4625   -0.3856   -5.6785 H   0  0
   -4.3678   -1.6808   -4.5565 H   0  0
   -1.3726   -4.4284   -5.0840 H   0  0
   -1.5208   -1.8341   -8.0063 H   0  0
    1.4964    2.1115   -5.7693 H   0  0
    0.3189    1.9198    0.4253 H   0  0
   -1.4453    1.8270    0.4597 H   0  0
   -0.6007    1.9938   -1.1563 H   0  0
  1  2  1  0
  2  7  1  0
  2  3  2  0
  3  4  1  0
  3 10  1  0
  4  5  1  0
  4  8  1  0
  4  9  1  0
  5  6  1  0
  6  7  1  0
 10 11  1  0
 11 12  1  0
 12 13  2  0
 12 30  1  0
 13 14  1  0
 14 15  1  0
 15 16  1  0
 16 17  2  0
 16 28  1  0
 17 18  1  0
 18 19  1  0
 19 20  1  0
 19 27  1  0
 20 25  1  0
 20 21  2  0
 21 22  1  0
 22 23  2  0
 22 24  1  0
 24 25  1  0
 25 26  1  0
 28 29  2  0
  1 31  1  0
  1 32  1  0
  1 33  1  0
  5 34  1  0
  5 35  1  0
  6 36  1  0
  6 37  1  0
  7 38  1  0
  7 39  1  0
  8 40  1  0
  8 41  1  0
  8 42  1  0
  9 43  1  0
  9 44  1  0
  9 45  1  0
 10 46  1  0
 10 47  1  0
 11 48  1  0
 11 49  1  0
 13 50  1  0
 14 51  1  0
 14 52  1  0
 15 53  1  0
 15 54  1  0
 17 55  1  0
 18 56  1  0
 18 57  1  0
 19 58  1  0
 21 59  1  0
 26 60  1  0
 27 61  1  0
 28 62  1  0
 30 63  1  0
 30 64  1  0
 30 65  1  0
M  CHG  1  25  -1
M  END
> <Name>
ZINC05811335

> <reference>
BDB50039514

> <quality>
0.797

> <status>
decoy

$$$$
ZINC22372456
  SciTegic06061311253D

 48 49  0  0  1  0            999 V2000
    2.4283   -6.6821   -1.2165 C   0  0
    1.1219   -6.1915   -1.8438 C   0  0  1  0  0  0
   -0.0373   -6.9451   -1.2444 C   0  0
   -0.9114   -6.3449   -0.6554 O   0  0
   -0.1027   -8.2861   -1.3627 N   0  0
   -1.1164   -8.9986   -0.7081 C   0  0
   -1.7169   -8.4711    0.4249 C   0  0
   -2.7205   -9.1732    1.0661 C   0  0
   -3.1216  -10.4071    0.5874 C   0  0
   -2.5251  -10.9437   -0.5378 C   0  0
   -1.5205  -10.2436   -1.1910 C   0  0
   -0.7574  -10.9251   -2.6256 S   0  0
   -1.5986  -12.5157   -2.8564 C   0  0
   -1.0331  -13.2119   -4.0674 C   0  0
   -0.3824  -14.3405   -3.9298 C   0  0
    0.9630   -4.7719   -1.5832 O   0  0
    1.4801   -3.9211   -2.4922 C   0  0
    2.0484   -4.3541   -3.4759 O   0  0
    1.3569   -2.4697   -2.2939 C   0  0
    1.8796   -1.5937   -3.2131 C   0  0
    1.4412   -0.0284   -2.4690 S   0  0
    0.6158   -0.6848   -1.0264 C   0  0
    0.7395   -1.9829   -1.2144 N   0  0
    0.0105   -0.0069    0.0181 N   0  0
   -0.0061    1.4580    0.0288 C   0  0
   -0.7197    1.9434    1.2641 C   0  0
   -0.1231    2.7761    2.0806 C   0  0
    2.5497   -7.7575   -1.4136 H   0  0
    2.4021   -6.5097   -0.1304 H   0  0
    3.2749   -6.1324   -1.6536 H   0  0
    1.1492   -6.3641   -2.9298 H   0  0
    0.5924   -8.7872   -1.9342 H   0  0
   -1.3947   -7.4938    0.8136 H   0  0
   -3.2015   -8.7491    1.9598 H   0  0
   -3.9179  -10.9631    1.1039 H   0  0
   -2.8465  -11.9255   -0.9156 H   0  0
   -2.6754  -12.3445   -3.0023 H   0  0
   -1.4444  -13.1446   -1.9672 H   0  0
   -1.1667  -12.7724   -5.0669 H   0  0
   -0.2488  -14.7800   -2.9303 H   0  0
    0.0304  -14.8487   -4.8138 H   0  0
    2.4194   -1.7986   -4.1494 H   0  0
   -0.4282   -0.5325    0.7877 H   0  0
   -0.5305    1.8264   -0.8652 H   0  0
    1.0267    1.8365    0.0301 H   0  0
   -1.7416    1.5985    1.4802 H   0  0
    0.8988    3.1210    1.8645 H   0  0
   -0.6440    3.1304    2.9823 H   0  0
  1  2  1  0
  2  3  1  0
  2 16  1  0
  3  4  2  0
  3  5  1  0
  5  6  1  0
  6 11  2  0
  6  7  1  0
  7  8  2  0
  8  9  1  0
  9 10  2  0
 10 11  1  0
 11 12  1  0
 12 13  1  0
 13 14  1  0
 14 15  2  0
 16 17  1  0
 17 18  2  0
 17 19  1  0
 19 23  1  0
 19 20  2  0
 20 21  1  0
 21 22  1  0
 22 23  2  0
 22 24  1  0
 24 25  1  0
 25 26  1  0
 26 27  2  0
  1 28  1  0
  1 29  1  0
  1 30  1  0
  2 31  1  0
  5 32  1  0
  7 33  1  0
  8 34  1  0
  9 35  1  0
 10 36  1  0
 13 37  1  0
 13 38  1  0
 14 39  1  0
 15 40  1  0
 15 41  1  0
 20 42  1  0
 24 43  1  0
 25 44  1  0
 25 45  1  0
 26 46  1  0
 27 47  1  0
 27 48  1  0
M  END
> <Name>
ZINC22372456

> <reference>
BDB50039514

> <quality>
0.795

> <status>
decoy

$$$$
ZINC13935852
  SciTegic06061311253D

 40 41  0  0  0  0            999 V2000
   -1.0803    2.7206   11.3117 C   0  0
   -1.8985    3.1743   12.3290 C   0  0
   -2.9811    2.4138   12.7371 C   0  0
   -3.2458    1.2019   12.1219 C   0  0
   -2.4293    0.7528   11.1014 C   0  0
   -1.3487    1.5130   10.6947 C   0  0
   -0.4588    1.0219    9.5820 C   0  0
   -0.9707    1.5061    8.2975 N   0  0
   -0.3309    1.1890    7.1544 C   0  0
    1.0799    0.2205    7.2034 S   0  0
   -0.8018    1.6345    5.9728 N   0  0
   -0.2077    1.2118    4.7790 C   0  0
    0.0147    2.1215    3.7526 C   0  0
    0.6013    1.7041    2.5738 C   0  0
    0.9745    0.3828    2.4146 C   0  0
    0.7496   -0.5313    3.4341 C   0  0
    0.1607   -0.1164    4.6184 C   0  0
    1.1115   -1.8313    3.2737 O   0  0
    1.7130   -2.1883    2.0277 C   0  0
    2.0494   -3.6809    2.0328 C   0  0  1  0  0  0
    0.8771   -4.4225    2.2141 F   0  0
    2.6384   -4.0303    0.8129 F   0  0
    2.9404   -3.9545    3.0761 F   0  0
    0.8372    2.6751    1.4819 N   0  0
    0.5141    3.8409    1.6232 O   0  0
    1.3545    2.3082    0.4419 O   0  0
   -3.7789    2.8540   13.7346 F   0  0
   -0.2152    3.3206   10.9929 H   0  0
   -1.6897    4.1392   12.8142 H   0  0
   -4.1056    0.5969   12.4453 H   0  0
   -2.6393   -0.2100   10.6125 H   0  0
    0.5627    1.4002    9.7352 H   0  0
   -0.4459   -0.0780    9.5796 H   0  0
   -1.8195    2.0888    8.2680 H   0  0
   -1.5991    2.2862    5.9488 H   0  0
   -0.2765    3.1747    3.8788 H   0  0
    1.4504    0.0554    1.4785 H   0  0
   -0.0143   -0.8387    5.4294 H   0  0
    2.6351   -1.6059    1.8842 H   0  0
    1.0123   -1.9737    1.2073 H   0  0
  1  6  2  0
  1  2  1  0
  2  3  2  0
  3  4  1  0
  3 27  1  0
  4  5  2  0
  5  6  1  0
  6  7  1  0
  7  8  1  0
  8  9  1  0
  9 10  2  0
  9 11  1  0
 11 12  1  0
 12 17  2  0
 12 13  1  0
 13 14  2  0
 14 15  1  0
 14 24  1  0
 15 16  2  0
 16 17  1  0
 16 18  1  0
 18 19  1  0
 19 20  1  0
 20 21  1  0
 20 22  1  0
 20 23  1  0
 24 25  2  0
 24 26  2  0
  1 28  1  0
  2 29  1  0
  4 30  1  0
  5 31  1  0
  7 32  1  0
  7 33  1  0
  8 34  1  0
 11 35  1  0
 13 36  1  0
 15 37  1  0
 17 38  1  0
 19 39  1  0
 19 40  1  0
M  END
> <Name>
ZINC13935852

> <reference>
BDB50039514

> <quality>
0.795

> <status>
decoy

$$$$
ZINC01690812
  SciTegic06061311253D

 47 48  0  0  0  0            999 V2000
    5.1861   -0.7874    9.8721 C   0  0
    3.8312   -0.5227   10.2412 O   0  0
    2.9140   -0.4854    9.2378 C   0  0
    3.3267   -0.5877    7.9172 C   0  0
    2.3956   -0.5546    6.8981 C   0  0
    1.0467   -0.4093    7.1949 C   0  0
    0.6345   -0.3075    8.5168 C   0  0
    1.5666   -0.3455    9.5353 C   0  0
    1.1196   -0.2345   10.9701 C   0  0
    1.4657    2.1431   11.2705 C   0  0
    2.4614    3.1793   11.7956 C   0  0
    1.9123    4.8316   11.3275 Cl  0  0
    1.8658    0.6196   13.1094 C   0  0
    2.7790   -0.5401   13.5120 C   0  0
    2.6268   -0.8378   15.2837 Cl  0  0
    0.1023   -0.3713    6.1618 N   0  0
    0.2868   -1.1433    5.0255 C   0  0
   -0.7087   -1.2146    4.0479 C   0  0
   -0.4817   -1.9962    2.9321 C   0  0
    0.6648   -2.6511    2.8215 N   0  0
    1.5921   -2.5653    3.7646 C   0  0
    1.4110   -1.8308    4.8526 N   0  0
    3.1001   -3.4558    3.5703 S   0  0
    2.7927   -4.2498    1.9730 C   0  0
    1.9404    0.7939   11.6435 N   0  0
    5.4669   -0.0090    9.1474 H   0  0
    5.1800   -1.7528    9.3448 H   0  0
    5.8673   -0.8017   10.7357 H   0  0
    4.3959   -0.6952    7.6819 H   0  0
    2.7222   -0.6433    5.8514 H   0  0
   -0.4341   -0.1966    8.7529 H   0  0
    1.2549   -1.2022   11.4754 H   0  0
    0.0601    0.0594   11.0045 H   0  0
    0.4772    2.3222   11.7185 H   0  0
    1.3970    2.2189   10.1753 H   0  0
    3.4544    2.9875   11.3629 H   0  0
    2.5194    3.1097   12.8919 H   0  0
    2.1988    1.5423   13.6072 H   0  0
    0.8299    0.3914   13.4009 H   0  0
    3.8223   -0.2873   13.2718 H   0  0
    2.4853   -1.4463   12.9620 H   0  0
   -0.7295    0.2303    6.2462 H   0  0
   -1.6520   -0.6608    4.1642 H   0  0
   -1.2447   -2.0742    2.1436 H   0  0
    2.6987   -3.5443    1.1343 H   0  0
    1.9645   -4.9736    1.9861 H   0  0
    3.6947   -4.8415    1.7577 H   0  0
  1  2  1  0
  2  3  1  0
  3  8  2  0
  3  4  1  0
  4  5  2  0
  5  6  1  0
  6  7  2  0
  6 16  1  0
  7  8  1  0
  8  9  1  0
  9 25  1  0
 10 11  1  0
 10 25  1  0
 11 12  1  0
 13 14  1  0
 13 25  1  0
 14 15  1  0
 16 17  1  0
 17 22  2  0
 17 18  1  0
 18 19  2  0
 19 20  1  0
 20 21  2  0
 21 22  1  0
 21 23  1  0
 23 24  1  0
  1 26  1  0
  1 27  1  0
  1 28  1  0
  4 29  1  0
  5 30  1  0
  7 31  1  0
  9 32  1  0
  9 33  1  0
 10 34  1  0
 10 35  1  0
 11 36  1  0
 11 37  1  0
 13 38  1  0
 13 39  1  0
 14 40  1  0
 14 41  1  0
 16 42  1  0
 18 43  1  0
 19 44  1  0
 24 45  1  0
 24 46  1  0
 24 47  1  0
M  END
> <Name>
ZINC01690812

> <reference>
BDB50039514

> <quality>
0.794

> <status>
decoy

$$$$
ZINC27334541
  SciTegic06061311253D

 50 51  0  0  1  0            999 V2000
    0.0111    1.0724    2.5063 C   0  0
   -0.7288    1.5792    1.2668 C   0  0
   -0.0127    1.0858    0.0080 C   0  0
   -0.7527    1.5927   -1.2315 C   0  0
   -0.0366    1.0992   -2.4903 C   0  0
   -0.7766    1.6061   -3.7298 C   0  0  2  0  0  0
   -0.1353    1.0115   -4.9853 C   0  0
   -0.6936    3.0677   -3.7845 N   0  0
   -1.6357    3.7720   -4.4424 C   0  0
   -2.5522    3.1958   -4.9892 O   0  0
   -1.5503    5.2755   -4.4986 C   0  0
   -2.9494    5.9243   -5.4462 S   0  0
   -2.6074    7.6503   -5.3539 C   0  0
   -3.3491    8.6555   -5.9051 N   0  0
   -2.7041    9.8154   -5.5751 C   0  0
   -1.6491    9.4893   -4.8835 N   0  0
   -1.5913    8.2131   -4.7422 N   0  5
   -3.1340   11.2122   -5.9433 C   0  0
   -4.3347   11.1530   -6.7156 O   0  0
   -4.8598   12.3356   -7.1316 C   0  0
   -4.2351   13.5284   -6.7979 C   0  0
   -4.7678   14.7292   -7.2257 C   0  0
   -5.9293   14.7432   -7.9775 C   0  0
   -6.5566   13.5547   -8.3068 C   0  0
   -6.0243   12.3517   -7.8853 C   0  0
   -6.6000   16.2537   -8.5087 Cl  0  0
    1.0432    1.4528    2.4996 H   0  0
    0.0263   -0.0275    2.5013 H   0  0
   -0.5033    1.4268    3.4117 H   0  0
   -1.7606    1.1981    1.2742 H   0  0
   -0.7441    2.6791    1.2717 H   0  0
    1.0191    1.4669   -0.0002 H   0  0
    0.0025   -0.0141    0.0008 H   0  0
   -1.7846    1.2116   -1.2241 H   0  0
   -0.7679    2.6926   -1.2266 H   0  0
    0.9952    1.4803   -2.4985 H   0  0
   -0.0214   -0.0007   -2.4975 H   0  0
   -1.8320    1.3005   -3.6773 H   0  0
   -0.1974   -0.0860   -4.9454 H   0  0
    0.9201    1.3167   -5.0389 H   0  0
   -0.6669    1.3755   -5.8769 H   0  0
    0.0847    3.5571   -3.3202 H   0  0
   -1.5795    5.6830   -3.4773 H   0  0
   -0.6096    5.5726   -4.9853 H   0  0
   -3.3161   11.7934   -5.0273 H   0  0
   -2.3426   11.6969   -6.5338 H   0  0
   -3.3163   13.5182   -6.1931 H   0  0
   -4.2682   15.6748   -6.9685 H   0  0
   -7.4798   13.5678   -8.9047 H   0  0
   -6.5235   11.4071   -8.1471 H   0  0
  1  2  1  0
  2  3  1  0
  3  4  1  0
  4  5  1  0
  5  6  1  0
  6  7  1  0
  6  8  1  0
  8  9  1  0
  9 10  2  0
  9 11  1  0
 11 12  1  0
 12 13  1  0
 13 14  2  0
 13 17  1  0
 14 15  1  0
 15 18  1  0
 15 16  2  0
 16 17  1  0
 18 19  1  0
 19 20  1  0
 20 25  2  0
 20 21  1  0
 21 22  2  0
 22 23  1  0
 23 24  2  0
 23 26  1  0
 24 25  1  0
  1 27  1  0
  1 28  1  0
  1 29  1  0
  2 30  1  0
  2 31  1  0
  3 32  1  0
  3 33  1  0
  4 34  1  0
  4 35  1  0
  5 36  1  0
  5 37  1  0
  6 38  1  0
  7 39  1  0
  7 40  1  0
  7 41  1  0
  8 42  1  0
 11 43  1  0
 11 44  1  0
 18 45  1  0
 18 46  1  0
 21 47  1  0
 22 48  1  0
 24 49  1  0
 25 50  1  0
M  CHG  1  17  -1
M  END
> <Name>
ZINC27334541

> <reference>
BDB50039514

> <quality>
0.792

> <status>
decoy

$$$$
ZINC01664591
  SciTegic06061311253D

 57 58  0  0  0  0            999 V2000
    1.4298    2.0362    0.0242 C   0  0
   -0.0038    1.5015    0.0273 C   0  0
    0.0220   -0.0052    0.0263 C   0  0
    1.0820   -0.5932    0.0234 O   0  0
   -1.1284   -0.6960    0.0287 O   0  0
   -1.0339   -2.0544    0.0276 C   0  0
   -0.9854   -2.8775   -1.1046 C   0  0
   -0.8884   -4.1792   -0.6562 C   0  0
   -0.8871   -4.1465    0.7201 N   0  0
   -0.9757   -2.8536    1.1246 C   0  0
   -1.0039   -2.3822    2.5557 C   0  0
   -2.4335   -2.2049    2.9980 C   0  0
   -3.2481   -3.1863    3.5978 C   0  0
   -4.4547   -2.6204    3.8374 C   0  0
   -4.4099   -1.3265    3.4062 N   0  0
   -3.1648   -1.0770    2.8977 C   0  0
   -2.6929    0.2327    2.3208 C   0  0
   -5.5241   -3.2343    4.4074 O   0  0
   -6.5978   -2.4717    4.6667 C   0  0
   -6.6202   -1.3143    4.3073 O   0  0
   -7.7755   -3.0544    5.4046 C   0  0
   -8.8556   -1.9832    5.5683 C   0  0
   -2.8492   -4.6045    3.9148 C   0  0
   -0.8079   -5.3786   -1.4930 C   0  0
   -0.8185   -5.2763   -2.7050 O   0  0
   -0.7219   -6.5966   -0.9196 O   0  0
   -0.6454   -7.7406   -1.8104 C   0  0
   -0.5541   -9.0251   -0.9842 C   0  0
   -1.0282   -2.4264   -2.5419 C   0  0
    1.9532    1.6798   -0.8752 H   0  0
    1.9575    1.6787    0.9207 H   0  0
    1.4117    3.1361    0.0249 H   0  0
   -0.5316    1.8590   -0.8691 H   0  0
   -0.5264    1.8581    0.9272 H   0  0
   -0.8286   -4.9669    1.3401 H   0  0
   -0.5119   -3.1280    3.1973 H   0  0
   -0.4739   -1.4217    2.6371 H   0  0
   -5.1850   -0.6500    3.4555 H   0  0
   -2.3419   -0.0567    1.3193 H   0  0
   -1.7878    0.4440    2.9091 H   0  0
   -3.4248    1.0539    2.3173 H   0  0
   -7.4522   -3.4027    6.3967 H   0  0
   -8.1835   -3.9015    4.8336 H   0  0
   -9.1809   -1.6346    4.5770 H   0  0
   -8.4491   -1.1354    6.1392 H   0  0
   -9.7156   -2.4079    6.1069 H   0  0
   -1.9438   -4.4628    4.5232 H   0  0
   -2.4960   -4.9720    2.9400 H   0  0
   -3.6132   -5.2405    4.3858 H   0  0
   -1.5455   -7.7746   -2.4419 H   0  0
    0.2466   -7.6514   -2.4479 H   0  0
   -1.4460   -9.1165   -0.3469 H   0  0
    0.3456   -8.9926   -0.3522 H   0  0
   -0.4961   -9.8922   -1.6585 H   0  0
   -0.2007   -1.7029   -2.5844 H   0  0
   -1.9487   -1.8248   -2.5706 H   0  0
   -0.9794   -3.2125   -3.3098 H   0  0
  1  2  1  0
  2  3  1  0
  3  4  2  0
  3  5  1  0
  5  6  1  0
  6 10  2  0
  6  7  1  0
  7  8  2  0
  7 29  1  0
  8  9  1  0
  8 24  1  0
  9 10  1  0
 10 11  1  0
 11 12  1  0
 12 16  2  0
 12 13  1  0
 13 14  2  0
 13 23  1  0
 14 15  1  0
 14 18  1  0
 15 16  1  0
 16 17  1  0
 18 19  1  0
 19 20  2  0
 19 21  1  0
 21 22  1  0
 24 25  2  0
 24 26  1  0
 26 27  1  0
 27 28  1  0
  1 30  1  0
  1 31  1  0
  1 32  1  0
  2 33  1  0
  2 34  1  0
  9 35  1  0
 11 36  1  0
 11 37  1  0
 15 38  1  0
 17 39  1  0
 17 40  1  0
 17 41  1  0
 21 42  1  0
 21 43  1  0
 22 44  1  0
 22 45  1  0
 22 46  1  0
 23 47  1  0
 23 48  1  0
 23 49  1  0
 27 50  1  0
 27 51  1  0
 28 52  1  0
 28 53  1  0
 28 54  1  0
 29 55  1  0
 29 56  1  0
 29 57  1  0
M  END
> <Name>
ZINC01664591

> <reference>
BDB50039514

> <quality>
0.790

> <status>
decoy

$$$$
ZINC10011110
  SciTegic06061311253D

 53 54  0  0  1  0            999 V2000
  -12.2665  -11.1681    0.4554 C   0  0
  -12.2418  -11.5645   -1.0222 C   0  0
  -10.9085  -11.1410   -1.6417 C   0  0  1  0  0  0
  -10.8326  -11.6467   -3.0837 C   0  0
  -10.8099   -9.7154   -1.6310 O   0  0
   -9.5627   -9.1846   -1.5648 C   0  0
   -8.4509  -10.0157   -1.6393 C   0  0
   -7.1837   -9.4812   -1.5731 C   0  0
   -7.0162   -8.1009   -1.4302 C   0  0
   -8.1368   -7.2694   -1.3494 C   0  0
   -9.4005   -7.8114   -1.4223 C   0  0
   -5.6604   -7.5238   -1.3588 C   0  0
   -4.6870   -8.2490   -1.4242 O   0  0
   -5.5010   -6.1927   -1.2211 N   0  0
   -4.2623   -5.6655   -1.1558 C   0  0
   -2.8914   -6.6868   -1.2480 S   0  0
   -4.1029   -4.3343   -1.0181 N   0  5
   -2.8223   -3.7742   -1.0701 C   0  0
   -2.4730   -2.7542   -0.1936 C   0  0
   -1.2084   -2.2012   -0.2451 C   0  0
   -0.2859   -2.6637   -1.1645 C   0  0
   -0.6310   -3.6783   -2.0461 C   0  0
   -1.8990   -4.2362   -1.9974 C   0  0
    0.2754   -4.1284   -2.9531 O   0  0
    1.5626   -3.5078   -2.9468 C   0  0
    2.4398   -4.1418   -4.0283 C   0  0
    1.8891   -3.8570   -5.3158 O   0  0
    2.6368   -4.4069   -6.4023 C   0  0
  -12.1510  -10.0779    0.5456 H   0  0
  -11.4419  -11.6686    0.9842 H   0  0
  -13.2249  -11.4723    0.9014 H   0  0
  -13.0664  -11.0641   -1.5511 H   0  0
  -12.3571  -12.6548   -1.1114 H   0  0
  -10.0804  -11.5703   -1.0586 H   0  0
  -11.6601  -11.2178   -3.6678 H   0  0
  -10.9083  -12.7441   -3.0930 H   0  0
   -9.8742  -11.3425   -3.5297 H   0  0
   -8.5837  -11.1019   -1.7513 H   0  0
   -6.3044  -10.1395   -1.6326 H   0  0
   -8.0094   -6.1836   -1.2277 H   0  0
  -10.2829   -7.1568   -1.3677 H   0  0
   -6.3258   -5.5782   -1.1658 H   0  0
   -3.2040   -2.3869    0.5417 H   0  0
   -0.9349   -1.3911    0.4470 H   0  0
    0.7232   -2.2270   -1.1975 H   0  0
   -2.1728   -5.0436   -2.6925 H   0  0
    2.0345   -3.6496   -1.9633 H   0  0
    1.4522   -2.4322   -3.1489 H   0  0
    3.4568   -3.7274   -3.9652 H   0  0
    2.4777   -5.2310   -3.8793 H   0  0
    2.6844   -5.4959   -6.2545 H   0  0
    3.6579   -4.0024   -6.3405 H   0  0
    2.1784   -4.1640   -7.3723 H   0  0
  1  2  1  0
  2  3  1  0
  3  4  1  0
  3  5  1  0
  5  6  1  0
  6 11  2  0
  6  7  1  0
  7  8  2  0
  8  9  1  0
  9 10  2  0
  9 12  1  0
 10 11  1  0
 12 13  2  0
 12 14  1  0
 14 15  1  0
 15 16  2  0
 15 17  1  0
 17 18  1  0
 18 23  2  0
 18 19  1  0
 19 20  2  0
 20 21  1  0
 21 22  2  0
 22 23  1  0
 22 24  1  0
 24 25  1  0
 25 26  1  0
 26 27  1  0
 27 28  1  0
  1 29  1  0
  1 30  1  0
  1 31  1  0
  2 32  1  0
  2 33  1  0
  3 34  1  0
  4 35  1  0
  4 36  1  0
  4 37  1  0
  7 38  1  0
  8 39  1  0
 10 40  1  0
 11 41  1  0
 14 42  1  0
 19 43  1  0
 20 44  1  0
 21 45  1  0
 23 46  1  0
 25 47  1  0
 25 48  1  0
 26 49  1  0
 26 50  1  0
 28 51  1  0
 28 52  1  0
 28 53  1  0
M  CHG  1  17  -1
M  END
> <Name>
ZINC10011110

> <reference>
BDB50039514

> <quality>
0.787

> <status>
decoy

$$$$
ZINC07498395
  SciTegic06061311253D

 53 54  0  0  0  0            999 V2000
   -4.6965   -3.2189   -1.3399 C   0  0
   -3.3119   -2.5915   -1.1664 C   0  0  1  0  0  0
   -2.3978   -3.0503   -2.3043 C   0  0
   -3.4357   -1.0667   -1.1949 C   0  0
   -2.0726   -0.4388   -0.8974 C   0  0
   -2.1882    0.9853   -0.9240 O   0  0
   -1.0592    1.7007   -0.6777 C   0  0
    0.1356    1.0434   -0.4158 C   0  0
    1.2886    1.7657   -0.1706 C   0  0
    1.2588    3.1453   -0.1794 C   0  0
    0.0611    3.8152   -0.4361 C   0  0
   -1.1020    3.0845   -0.6829 C   0  0
    0.0251    5.2925   -0.4459 C   0  0
   -1.0187    5.8734   -0.6696 O   0  0
    1.1497    5.9957   -0.2068 N   0  0
    1.1168    7.3430   -0.2157 C   0  0
   -0.3536    8.1613   -0.5308 S   0  0
    2.2415    8.0462    0.0234 N   0  5
    2.2281    9.4435   -0.0747 C   0  0
    1.2147   10.1727    0.5296 C   0  0
    1.2062   11.5557    0.4340 C   0  0
    2.2049   12.2093   -0.2728 C   0  0
    3.2133   11.4844   -0.8800 C   0  0
    3.2291   10.1027   -0.7841 C   0  0
    4.2221    9.3901   -1.3820 O   0  0
    5.2154   10.1318   -2.0927 C   0  0
    0.2155   12.2717    1.0297 O   0  0
    0.2660   13.6926    0.8866 C   0  0
   -4.6086   -4.3152   -1.3193 H   0  0
   -5.1248   -2.9040   -2.3029 H   0  0
   -5.3542   -2.8894   -0.5221 H   0  0
   -2.8846   -2.9068   -0.2031 H   0  0
   -2.8241   -2.7353   -3.2682 H   0  0
   -2.3079   -4.1464   -2.2845 H   0  0
   -1.4021   -2.5996   -2.1801 H   0  0
   -3.7777   -0.7450   -2.1896 H   0  0
   -4.1617   -0.7424   -0.4348 H   0  0
   -1.7301   -0.7598    0.0974 H   0  0
   -1.3455   -0.7612   -1.6572 H   0  0
    0.1648   -0.0561   -0.4034 H   0  0
    2.2328    1.2390    0.0322 H   0  0
    2.1782    3.7169    0.0157 H   0  0
   -2.0498    3.6064   -0.8809 H   0  0
    2.0344    5.5034   -0.0173 H   0  0
    0.4186    9.6542    1.0841 H   0  0
    2.1944   13.3065   -0.3503 H   0  0
    4.0039   12.0054   -1.4399 H   0  0
    5.6533   10.8347   -1.3687 H   0  0
    4.6782   10.7199   -2.8514 H   0  0
    5.9828    9.4882   -2.5475 H   0  0
    0.2652   13.8948   -0.1947 H   0  0
    1.2398   14.0095    1.2883 H   0  0
   -0.5667   14.2012    1.3945 H   0  0
  1  2  1  0
  2  3  1  0
  2  4  1  0
  4  5  1  0
  5  6  1  0
  6  7  1  0
  7 12  2  0
  7  8  1  0
  8  9  2  0
  9 10  1  0
 10 11  2  0
 11 12  1  0
 11 13  1  0
 13 14  2  0
 13 15  1  0
 15 16  1  0
 16 17  2  0
 16 18  1  0
 18 19  1  0
 19 24  2  0
 19 20  1  0
 20 21  2  0
 21 22  1  0
 21 27  1  0
 22 23  2  0
 23 24  1  0
 24 25  1  0
 25 26  1  0
 27 28  1  0
  1 29  1  0
  1 30  1  0
  1 31  1  0
  2 32  1  0
  3 33  1  0
  3 34  1  0
  3 35  1  0
  4 36  1  0
  4 37  1  0
  5 38  1  0
  5 39  1  0
  8 40  1  0
  9 41  1  0
 10 42  1  0
 12 43  1  0
 15 44  1  0
 20 45  1  0
 22 46  1  0
 23 47  1  0
 26 48  1  0
 26 49  1  0
 26 50  1  0
 28 51  1  0
 28 52  1  0
 28 53  1  0
M  CHG  1  18  -1
M  END
> <Name>
ZINC07498395

> <reference>
BDB50039514

> <quality>
0.784

> <status>
decoy

$$$$
ZINC24951658
  SciTegic06061311253D

 54 55  0  0  1  0            999 V2000
    4.0237    2.2294   -1.9142 C   0  0
    3.4790    2.1414   -0.4872 C   0  0
    1.9994    2.4270   -0.4957 C   0  0
    0.9829    1.5582   -0.6391 C   0  0
   -0.3555    2.0997   -0.6170 C   0  0
   -0.4705    3.4742   -0.4373 C   0  0
    1.1763    3.9962   -0.3191 S   0  0
   -1.6235    4.2409   -0.3742 N   0  0
   -1.5373    5.5744   -0.1991 C   0  0
   -0.4508    6.1036   -0.0969 O   0  0
   -2.7909    6.4080   -0.1305 C   0  0
   -2.4158    7.8775    0.0711 C   0  0  1  0  0  0
   -3.6603    8.7256    0.0170 C   0  0
   -4.7680    8.2837   -0.6821 C   0  0
   -5.9112    9.0595   -0.7277 C   0  0
   -5.9433   10.2817   -0.0826 C   0  0
   -4.8337   10.7262    0.6116 C   0  0
   -3.6922    9.9480    0.6616 C   0  0
   -7.1879   11.1298   -0.1367 C   0  0
   -1.7691    8.0420    1.3753 N   0  0
   -2.4584    7.7901    2.5058 C   0  0
   -3.5820    7.3380    2.4429 O   0  0
   -1.8328    8.0701    3.8479 C   0  0
   -1.5335    1.2435   -0.7708 C   0  0
   -2.6474    1.7318   -0.7479 O   0  0
   -1.3834   -0.0865   -0.9378 O   0  0
   -2.5949   -0.8734   -1.0838 C   0  0
   -2.2271   -2.3478   -1.2616 C   0  0
    3.8482    3.2394   -2.3131 H   0  0
    3.5121    1.4911   -2.5492 H   0  0
    5.1038    2.0210   -1.9087 H   0  0
    3.6546    1.1311   -0.0892 H   0  0
    3.9905    2.8797    0.1479 H   0  0
    1.1634    0.4808   -0.7678 H   0  0
   -2.5462    3.7915   -0.4611 H   0  0
   -3.4117    6.0699    0.7123 H   0  0
   -3.3553    6.2996   -1.0684 H   0  0
   -1.7233    8.1915   -0.7238 H   0  0
   -4.7397    7.3148   -1.2021 H   0  0
   -6.7954    8.7043   -1.2773 H   0  0
   -4.8590   11.6991    1.1242 H   0  0
   -2.8093   10.3015    1.2143 H   0  0
   -7.9889   10.4873    0.2577 H   0  0
   -7.3871   11.2770   -1.2085 H   0  0
   -7.1029   12.0804    0.4102 H   0  0
   -0.7877    8.3501    1.4283 H   0  0
   -1.5572    9.1346    3.8199 H   0  0
   -0.8979    7.4906    3.8556 H   0  0
   -2.4849    7.8271    4.6998 H   0  0
   -3.1545   -0.5270   -1.9652 H   0  0
   -3.2182   -0.7574   -0.1849 H   0  0
   -1.6684   -2.6962   -0.3804 H   0  0
   -1.6038   -2.4655   -2.1603 H   0  0
   -3.1445   -2.9445   -1.3723 H   0  0
  1  2  1  0
  2  3  1  0
  3  7  1  0
  3  4  2  0
  4  5  1  0
  5  6  2  0
  5 24  1  0
  6  7  1  0
  6  8  1  0
  8  9  1  0
  9 10  2  0
  9 11  1  0
 11 12  1  0
 12 13  1  0
 12 20  1  0
 13 18  2  0
 13 14  1  0
 14 15  2  0
 15 16  1  0
 16 17  2  0
 16 19  1  0
 17 18  1  0
 20 21  1  0
 21 22  2  0
 21 23  1  0
 24 25  2  0
 24 26  1  0
 26 27  1  0
 27 28  1  0
  1 29  1  0
  1 30  1  0
  1 31  1  0
  2 32  1  0
  2 33  1  0
  4 34  1  0
  8 35  1  0
 11 36  1  0
 11 37  1  0
 12 38  1  0
 14 39  1  0
 15 40  1  0
 17 41  1  0
 18 42  1  0
 19 43  1  0
 19 44  1  0
 19 45  1  0
 20 46  1  0
 23 47  1  0
 23 48  1  0
 23 49  1  0
 27 50  1  0
 27 51  1  0
 28 52  1  0
 28 53  1  0
 28 54  1  0
M  END
> <Name>
ZINC24951658

> <reference>
BDB50039514

> <quality>
0.784

> <status>
decoy

$$$$
ZINC16883268
  SciTegic06061311253D

 50 51  0  0  0  0            999 V2000
   13.1962   10.5567   -0.7274 C   0  0
   11.8180    9.9033   -0.6074 C   0  0
   11.9713    8.3812   -0.6315 C   0  0
   10.5930    7.7278   -0.5115 C   0  0
   10.7464    6.2057   -0.5356 C   0  0
    9.3681    5.5524   -0.4155 C   0  0
    9.5113    4.1307   -0.4381 O   0  0
    8.3751    3.3956   -0.3404 C   0  0
    8.4455    2.0063   -0.3562 C   0  0
    7.3050    1.2607   -0.2587 C   0  0
    6.0615    1.8987   -0.1426 C   0  0
    5.9967    3.2995   -0.1326 C   0  0
    7.1446    4.0342   -0.2255 C   0  0
    4.8351    1.1052   -0.0382 C   0  0
    3.7496    1.6021    0.6496 C   0  0
    3.8665    2.8256    1.3844 C   0  0
    3.9592    3.7962    1.9674 N   0  0
    2.4703    0.8756    0.6290 C   0  0
    2.3710   -0.1637    0.0047 O   0  0
    1.4084    1.3617    1.3017 N   0  5
    0.1903    0.6700    1.2821 N   0  0
   -0.8732    1.1589    1.9503 C   0  0
   -0.7739    2.1987    2.5748 O   0  0
   -2.1494    0.4383    1.9248 C   0  0
   -3.3480    0.7620    2.5410 C   0  0
   -4.4023   -0.0952    2.3468 C   0  0
   -4.2227   -1.2055    1.5842 C   0  0
   -2.5626   -1.0882    1.0989 S   0  0
   13.6668   10.2513   -1.6736 H   0  0
   13.8283   10.2392    0.1150 H   0  0
   13.0867   11.6511   -0.7101 H   0  0
   11.3483   10.2090    0.3391 H   0  0
   11.1859   10.2208   -1.4498 H   0  0
   12.4406    8.0747   -1.5780 H   0  0
   12.6023    8.0617    0.2110 H   0  0
   10.1233    8.0335    0.4350 H   0  0
    9.9609    8.0452   -1.3539 H   0  0
   11.2156    5.8992   -1.4821 H   0  0
   11.3774    5.8862    0.3069 H   0  0
    8.8985    5.8581    0.5311 H   0  0
    8.7359    5.8700   -1.2578 H   0  0
    9.4215    1.5072   -0.4474 H   0  0
    7.3619    0.1622   -0.2712 H   0  0
    5.0235    3.8056   -0.0501 H   0  0
    7.0958    5.1330   -0.2094 H   0  0
    4.7806    0.1125   -0.5089 H   0  0
    0.1075   -0.2122    0.7570 H   0  0
   -3.4499    1.6664    3.1587 H   0  0
   -5.3811    0.1141    2.8031 H   0  0
   -4.9536   -1.9889    1.3352 H   0  0
  1  2  1  0
  2  3  1  0
  3  4  1  0
  4  5  1  0
  5  6  1  0
  6  7  1  0
  7  8  1  0
  8 13  2  0
  8  9  1  0
  9 10  2  0
 10 11  1  0
 11 12  2  0
 11 14  1  0
 12 13  1  0
 14 15  2  0
 15 16  1  0
 15 18  1  0
 16 17  3  0
 18 19  2  0
 18 20  1  0
 20 21  1  0
 21 22  1  0
 22 23  2  0
 22 24  1  0
 24 28  1  0
 24 25  2  0
 25 26  1  0
 26 27  2  0
 27 28  1  0
  1 29  1  0
  1 30  1  0
  1 31  1  0
  2 32  1  0
  2 33  1  0
  3 34  1  0
  3 35  1  0
  4 36  1  0
  4 37  1  0
  5 38  1  0
  5 39  1  0
  6 40  1  0
  6 41  1  0
  9 42  1  0
 10 43  1  0
 12 44  1  0
 13 45  1  0
 14 46  1  0
 21 47  1  0
 25 48  1  0
 26 49  1  0
 27 50  1  0
M  CHG  1  20  -1
M  END
> <Name>
ZINC16883268

> <reference>
BDB50039514

> <quality>
0.783

> <status>
decoy

$$$$
ZINC09826006
  SciTegic06061311253D

 47 48  0  0  0  0            999 V2000
   -8.1541   -2.5196    2.2363 C   0  0
   -8.7206   -2.2053    0.8502 C   0  0
   -8.9519   -0.7996    0.7377 O   0  0
   -9.4840   -0.3974   -0.5261 C   0  0
   -9.6904    1.1185   -0.5334 C   0  0
   -8.4238    1.7723   -0.4311 O   0  0
   -8.4297    3.1287   -0.4238 C   0  0
   -9.6285    3.8207   -0.5126 C   0  0
   -9.6330    5.2012   -0.5045 C   0  0
   -8.4437    5.9057   -0.4075 C   0  0
   -7.2440    5.2348   -0.3136 C   0  0
   -7.2243    3.8375   -0.3259 C   0  0
   -5.9436    3.1130   -0.2304 C   0  0
   -5.9309    1.8975   -0.2365 O   0  0
   -4.7869    3.7985   -0.1365 N   0  0
   -3.6163    3.1363   -0.0493 C   0  0
   -3.5985    1.4245   -0.0577 S   0  0
   -2.4597    3.8218    0.0447 N   0  5
   -1.2378    3.1370    0.0461 C   0  0
   -0.1848    3.5933   -0.7359 C   0  0
    1.0180    2.9150   -0.7384 C   0  0
    1.1786    1.7838    0.0479 C   0  0
    0.1288    1.3299    0.8343 C   0  0
   -1.0771    2.0049    0.8336 C   0  0
    0.3304   -0.0860    1.8183 Cl  0  0
    2.3653    1.1194    0.0487 O   0  0
    3.4023    1.6425   -0.7839 C   0  0
   -8.8724   -2.2040    3.0073 H   0  0
   -7.2058   -1.9803    2.3769 H   0  0
   -7.9758   -3.6015    2.3236 H   0  0
   -8.0015   -2.5209    0.0799 H   0  0
   -9.6689   -2.7446    0.7095 H   0  0
  -10.4483   -0.8988   -0.6955 H   0  0
   -8.7809   -0.6750   -1.3252 H   0  0
  -10.1820    1.4172   -1.4710 H   0  0
  -10.3215    1.4078    0.3198 H   0  0
  -10.5769    3.2688   -0.5896 H   0  0
  -10.5864    5.7452   -0.5755 H   0  0
   -8.4575    7.0056   -0.4055 H   0  0
   -6.3030    5.7982   -0.2291 H   0  0
   -4.7976    4.8284   -0.1314 H   0  0
   -0.3089    4.4951   -1.3534 H   0  0
    1.8492    3.2720   -1.3643 H   0  0
   -1.9093    1.6454    1.4567 H   0  0
    3.5636    2.6816   -0.4609 H   0  0
    2.9960    1.6661   -1.8058 H   0  0
    4.3294    1.0529   -0.7300 H   0  0
  1  2  1  0
  2  3  1  0
  3  4  1  0
  4  5  1  0
  5  6  1  0
  6  7  1  0
  7 12  2  0
  7  8  1  0
  8  9  2  0
  9 10  1  0
 10 11  2  0
 11 12  1  0
 12 13  1  0
 13 14  2  0
 13 15  1  0
 15 16  1  0
 16 17  2  0
 16 18  1  0
 18 19  1  0
 19 24  2  0
 19 20  1  0
 20 21  2  0
 21 22  1  0
 22 23  2  0
 22 26  1  0
 23 24  1  0
 23 25  1  0
 26 27  1  0
  1 28  1  0
  1 29  1  0
  1 30  1  0
  2 31  1  0
  2 32  1  0
  4 33  1  0
  4 34  1  0
  5 35  1  0
  5 36  1  0
  8 37  1  0
  9 38  1  0
 10 39  1  0
 11 40  1  0
 15 41  1  0
 20 42  1  0
 21 43  1  0
 24 44  1  0
 27 45  1  0
 27 46  1  0
 27 47  1  0
M  CHG  1  18  -1
M  END
> <Name>
ZINC09826006

> <reference>
BDB50039514

> <quality>
0.783

> <status>
decoy

$$$$
ZINC05040340
  SciTegic06061311253D

 55 56  0  0  1  0            999 V2000
   -3.7077   -3.1541   -3.3913 C   0  0
   -4.9036   -2.2291   -3.6260 C   0  0  1  0  0  0
   -6.0332   -3.0154   -4.2944 C   0  0
   -5.3912   -1.6758   -2.2855 C   0  0
   -4.3218   -0.8003   -1.6845 C   0  0
   -4.2946    0.5520   -1.9698 C   0  0
   -3.3135    1.3550   -1.4190 C   0  0
   -2.3595    0.8057   -0.5829 C   0  0
   -2.3836   -0.5476   -0.3017 C   0  0
   -3.3679   -1.3496   -0.8484 C   0  0
   -1.2896    1.6810    0.0173 C   0  0  1  0  0  0
   -1.6665    2.0319    1.4580 C   0  0
   -0.0111    0.9658    0.0074 N   0  0
    1.1468    1.6555    0.0000 C   0  0
    1.1304    2.8682    0.0067 O   0  0
    2.4620    0.9199   -0.0165 C   0  0
    3.5526    1.8783   -0.0218 O   0  0
    4.8053    1.3800   -0.0364 C   0  0
    4.9809    0.1771   -0.0445 O   0  0
    5.9588    2.2913   -0.0425 C   0  0
    7.2391    1.7951   -0.0574 C   0  0
    8.1848    3.3122   -0.0582 S   0  0
    6.8016    4.4434   -0.0389 C   0  0
    5.7776    3.6144   -0.0392 N   0  0
    6.8051    5.8279   -0.0315 N   0  0
    8.0756    6.5573   -0.0391 C   0  0
    7.8039    8.0396   -0.0287 C   0  0
    8.3343    8.7962    0.9000 C   0  0
   -3.3562   -3.5523   -4.3546 H   0  0
   -4.0095   -3.9870   -2.7392 H   0  0
   -2.8952   -2.5894   -2.9108 H   0  0
   -4.6007   -1.3965   -4.2780 H   0  0
   -6.3370   -3.8481   -3.6431 H   0  0
   -5.6837   -3.4134   -5.2585 H   0  0
   -6.8934   -2.3509   -4.4634 H   0  0
   -6.3039   -1.0826   -2.4437 H   0  0
   -5.6094   -2.5090   -1.6012 H   0  0
   -5.0537    0.9891   -2.6352 H   0  0
   -3.2919    2.4311   -1.6460 H   0  0
   -1.6196   -0.9862    0.3570 H   0  0
   -3.3920   -2.4249   -0.6181 H   0  0
   -1.1977    2.6046   -0.5730 H   0  0
   -1.7585    1.1089    2.0492 H   0  0
   -2.6263    2.5692    1.4665 H   0  0
   -0.8859    2.6708    1.8967 H   0  0
    0.0029   -0.0641    0.0061 H   0  0
    2.5378    0.2839    0.8778 H   0  0
    2.5214    0.2929   -0.9184 H   0  0
    7.5870    0.7516   -0.0664 H   0  0
    5.9144    6.3451   -0.0207 H   0  0
    8.6444    6.2959   -0.9436 H   0  0
    8.6597    6.2859    0.8526 H   0  0
    7.1603    8.4862   -0.8009 H   0  0
    8.9779    8.3496    1.6722 H   0  0
    8.1360    9.8782    0.9076 H   0  0
  1  2  1  0
  2  3  1  0
  2  4  1  0
  4  5  1  0
  5 10  2  0
  5  6  1  0
  6  7  2  0
  7  8  1  0
  8  9  2  0
  8 11  1  0
  9 10  1  0
 11 12  1  0
 11 13  1  0
 13 14  1  0
 14 15  2  0
 14 16  1  0
 16 17  1  0
 17 18  1  0
 18 19  2  0
 18 20  1  0
 20 24  1  0
 20 21  2  0
 21 22  1  0
 22 23  1  0
 23 24  2  0
 23 25  1  0
 25 26  1  0
 26 27  1  0
 27 28  2  0
  1 29  1  0
  1 30  1  0
  1 31  1  0
  2 32  1  0
  3 33  1  0
  3 34  1  0
  3 35  1  0
  4 36  1  0
  4 37  1  0
  6 38  1  0
  7 39  1  0
  9 40  1  0
 10 41  1  0
 11 42  1  0
 12 43  1  0
 12 44  1  0
 12 45  1  0
 13 46  1  0
 16 47  1  0
 16 48  1  0
 21 49  1  0
 25 50  1  0
 26 51  1  0
 26 52  1  0
 27 53  1  0
 28 54  1  0
 28 55  1  0
M  END
> <Name>
ZINC05040340

> <reference>
BDB50039514

> <quality>
0.782

> <status>
decoy

$$$$
ZINC07189972
  SciTegic06061311253D

 43 44  0  0  1  0            999 V2000
   10.6687   -8.5672    4.7636 C   0  0
    9.6102   -7.5346    4.3709 C   0  0
    9.2506   -6.6837    5.5905 C   0  0
    8.2370   -5.6950    5.2144 N   0  0
    7.7653   -4.8302    6.1343 C   0  0
    8.1798   -4.8705    7.2733 O   0  0
    6.7226   -3.8132    5.7474 C   0  0  2  0  0  0
    7.3967   -2.6351    5.0412 C   0  0
    5.8744   -3.2202    7.2372 S   0  0
    4.6060   -2.1673    6.6148 C   0  0
    4.3130   -1.8592    5.3658 N   0  0
    3.2680   -1.0052    5.0988 N   0  0
    2.5640   -0.4987    6.0923 C   0  0
    3.3784   -1.2247    7.5067 S   0  0
    1.4813    0.3723    6.0503 N   0  0
    0.9222    0.7349    4.8195 C   0  0
    1.0558   -0.1048    3.7213 C   0  0
    0.5043    0.2541    2.5072 C   0  0
   -0.1831    1.4526    2.3844 C   0  0
   -0.3122    2.2945    3.4792 C   0  0
    0.2338    1.9348    4.6956 C   0  0
   -0.7259    1.8052    1.1884 O   0  0
   -1.4201    3.0531    1.1336 C   0  0  2  0  0  0
   -0.5425    4.0899    1.4683 F   0  0
   -2.4862    3.0338    2.0392 F   0  0
   -1.9111    3.2572   -0.1604 F   0  0
   10.2723   -9.2161    5.5585 H   0  0
   11.5690   -8.0506    5.1277 H   0  0
   10.9277   -9.1793    3.8871 H   0  0
   10.0075   -6.8860    3.5763 H   0  0
    8.7098   -8.0511    4.0068 H   0  0
    8.8528   -7.3317    6.3854 H   0  0
   10.1496   -6.1654    5.9554 H   0  0
    7.8849   -5.6608    4.2471 H   0  0
    5.9913   -4.2774    5.0694 H   0  0
    7.9112   -2.9936    4.1375 H   0  0
    8.1280   -2.1699    5.7186 H   0  0
    6.6362   -1.8923    4.7585 H   0  0
    1.0906    0.7508    6.9249 H   0  0
    1.6007   -1.0554    3.8186 H   0  0
    0.6102   -0.4107    1.6372 H   0  0
   -0.8497    3.2490    3.3785 H   0  0
    0.1235    2.5983    5.5660 H   0  0
  1  2  1  0
  2  3  1  0
  3  4  1  0
  4  5  1  0
  5  6  2  0
  5  7  1  0
  7  8  1  0
  7  9  1  0
  9 10  1  0
 10 14  1  0
 10 11  2  0
 11 12  1  0
 12 13  2  0
 13 14  1  0
 13 15  1  0
 15 16  1  0
 16 21  2  0
 16 17  1  0
 17 18  2  0
 18 19  1  0
 19 20  2  0
 19 22  1  0
 20 21  1  0
 22 23  1  0
 23 24  1  0
 23 25  1  0
 23 26  1  0
  1 27  1  0
  1 28  1  0
  1 29  1  0
  2 30  1  0
  2 31  1  0
  3 32  1  0
  3 33  1  0
  4 34  1  0
  7 35  1  0
  8 36  1  0
  8 37  1  0
  8 38  1  0
 15 39  1  0
 17 40  1  0
 18 41  1  0
 20 42  1  0
 21 43  1  0
M  END
> <Name>
ZINC07189972

> <reference>
BDB50039514

> <quality>
0.782

> <status>
decoy

$$$$
ZINC08795298
  SciTegic06061311253D

 60 62  0  0  0  0            999 V2000
    1.3287    4.0102    1.9406 C   0  0
    1.9847    3.2839    0.7646 C   0  0
    0.9373    3.0167   -0.3181 C   0  0
    1.7134    2.1575   -1.7094 S   0  0
    0.3216    1.9820   -2.7755 C   0  0
   -0.8491    2.4522   -2.3774 N   0  0
   -1.9240    2.3434   -3.1561 C   0  0
   -1.7973    1.7094   -4.4075 C   0  0
   -3.0734    1.7276   -5.0110 C   0  0
   -3.9046    2.3193   -4.2014 N   0  0
   -3.2303    2.7160   -3.0397 N   0  0
   -3.8261    3.4116   -1.8963 C   0  0
   -3.7259    4.9232   -2.1102 C   0  0
   -4.3217    5.6188   -0.9668 N   0  0
   -4.3469    6.9660   -0.9361 C   0  0
   -3.8072    7.6028   -1.8159 O   0  0
   -5.0457    7.6810    0.1916 C   0  0  1  0  0  0
   -4.4518    9.0817    0.3530 C   0  0
   -5.0731    9.7614    1.5748 C   0  0
   -6.5387    7.7932   -0.1233 C   0  0
   -6.7320    8.6382   -1.3840 C   0  0
   -0.5312    1.2199   -4.7858 C   0  0
    0.4853    1.3775   -3.9471 N   0  0
   -0.3521    0.5907   -6.0019 N   0  0
   -0.6383    1.5166   -7.1275 C   0  0
    0.0954    0.8586   -8.3231 C   0  0
    1.3842    0.3033   -7.6746 C   0  0
    1.0537    0.1657   -6.1769 C   0  0
    0.5242    3.3856    2.3560 H   0  0
    0.9084    4.9659    1.5943 H   0  0
    2.0813    4.2026    2.7195 H   0  0
    2.7888    3.9093    0.3497 H   0  0
    2.4051    2.3282    1.1109 H   0  0
    0.1330    2.3908    0.0960 H   0  0
    0.5166    3.9715   -0.6665 H   0  0
   -3.3235    1.3122   -5.9983 H   0  0
   -4.8838    3.1244   -1.8027 H   0  0
   -3.2885    3.1357   -0.9771 H   0  0
   -2.6684    5.2111   -2.2034 H   0  0
   -4.2639    5.2012   -3.0285 H   0  0
   -4.7213    5.0783   -0.1864 H   0  0
   -4.9093    7.1152    1.1250 H   0  0
   -4.6664    9.6780   -0.5461 H   0  0
   -3.3632    9.0049    0.4908 H   0  0
   -4.8584    9.1670    2.4751 H   0  0
   -6.1618    9.8391    1.4384 H   0  0
   -4.6465   10.7686    1.6914 H   0  0
   -7.0577    8.2711    0.7207 H   0  0
   -6.9552    6.7886   -0.2885 H   0  0
   -6.2146    8.1611   -2.2293 H   0  0
   -6.3160    9.6433   -1.2203 H   0  0
   -7.8053    8.7193   -1.6110 H   0  0
   -1.7200    1.5576   -7.3230 H   0  0
   -0.2137    2.5106   -6.9233 H   0  0
    0.3466    1.6156   -9.0806 H   0  0
   -0.5082    0.0363   -8.7347 H   0  0
    2.2127    1.0135   -7.8130 H   0  0
    1.6245   -0.6827   -8.0988 H   0  0
    1.1688   -0.8832   -5.8662 H   0  0
    1.7165    0.8176   -5.5889 H   0  0
  1  2  1  0
  2  3  1  0
  3  4  1  0
  4  5  1  0
  5 23  2  0
  5  6  1  0
  6  7  2  0
  7 11  1  0
  7  8  1  0
  8  9  1  0
  8 22  2  0
  9 10  2  0
 10 11  1  0
 11 12  1  0
 12 13  1  0
 13 14  1  0
 14 15  1  0
 15 16  2  0
 15 17  1  0
 17 18  1  0
 17 20  1  0
 18 19  1  0
 20 21  1  0
 22 23  1  0
 22 24  1  0
 24 28  1  0
 24 25  1  0
 25 26  1  0
 26 27  1  0
 27 28  1  0
  1 29  1  0
  1 30  1  0
  1 31  1  0
  2 32  1  0
  2 33  1  0
  3 34  1  0
  3 35  1  0
  9 36  1  0
 12 37  1  0
 12 38  1  0
 13 39  1  0
 13 40  1  0
 14 41  1  0
 17 42  1  0
 18 43  1  0
 18 44  1  0
 19 45  1  0
 19 46  1  0
 19 47  1  0
 20 48  1  0
 20 49  1  0
 21 50  1  0
 21 51  1  0
 21 52  1  0
 25 53  1  0
 25 54  1  0
 26 55  1  0
 26 56  1  0
 27 57  1  0
 27 58  1  0
 28 59  1  0
 28 60  1  0
M  END
> <Name>
ZINC08795298

> <reference>
BDB50039514

> <quality>
0.781

> <status>
decoy

$$$$
ZINC04561128
  SciTegic06061311253D

 58 59  0  0  0  0            999 V2000
    1.2301  -12.9433    3.3572 C   0  0
    2.1417  -11.9824    4.1231 C   0  0
    2.3830  -10.7280    3.2810 C   0  0
    3.2946   -9.7671    4.0469 C   0  0
    3.5257   -8.5660    3.2405 N   0  0
    4.3045   -7.5744    3.7165 C   0  0
    4.8155   -7.6767    4.8155 O   0  0
    4.5367   -6.3670    2.9059 C   0  0
    5.3243   -5.3424    3.3658 C   0  0
    5.2448   -4.2236    2.0419 S   0  0
    4.2118   -5.1465    0.9989 C   0  0
    3.9850   -6.2272    1.6997 N   0  0
    3.6977   -4.7892   -0.3718 C   0  0
    2.4234   -4.0776   -0.2453 N   0  0
    1.1642   -4.8263   -0.2366 C   0  0
    0.6475   -4.9718   -1.6694 C   0  0
   -0.6677   -5.7536   -1.6603 C   0  0
   -1.1843   -5.8992   -3.0931 C   0  0
    2.4095   -2.7343   -0.1369 C   0  0
    3.4546   -2.1130   -0.1441 O   0  0
    1.2372   -2.0797   -0.0204 N   0  0
    1.2156   -0.6805   -0.0047 C   0  0
    0.1614    0.0058   -0.5929 C   0  0
    0.1428    1.3867   -0.5752 C   0  0
    1.1725    2.0858    0.0273 C   0  0
    2.2236    1.4054    0.6140 C   0  0
    2.2481    0.0245    0.5997 C   0  0
    1.1490    3.5925    0.0447 C   0  0
    1.7087  -13.2262    2.4080 H   0  0
    0.2684  -12.4512    3.1499 H   0  0
    1.0562  -13.8454    3.9621 H   0  0
    1.6623  -11.6998    5.0719 H   0  0
    3.1034  -12.4745    4.3305 H   0  0
    2.8628  -11.0099    2.3322 H   0  0
    1.4224  -10.2339    3.0735 H   0  0
    2.8151   -9.4844    4.9957 H   0  0
    4.2563  -10.2592    4.2543 H   0  0
    3.0930   -8.4794    2.3098 H   0  0
    5.8633   -5.2536    4.3206 H   0  0
    4.4286   -4.1437   -0.8809 H   0  0
    3.5475   -5.7071   -0.9591 H   0  0
    1.3336   -5.8240    0.1946 H   0  0
    0.4199   -4.2871    0.3678 H   0  0
    0.4776   -3.9744   -2.1011 H   0  0
    1.3901   -5.5119   -2.2751 H   0  0
   -0.4984   -6.7513   -1.2290 H   0  0
   -1.4120   -5.2143   -1.0560 H   0  0
   -0.4417   -6.4394   -3.6987 H   0  0
   -1.3542   -4.9023   -3.5258 H   0  0
   -2.1299   -6.4612   -3.0873 H   0  0
    0.3572   -2.6092    0.0571 H   0  0
   -0.6580   -0.5498   -1.0724 H   0  0
   -0.6920    1.9309   -1.0409 H   0  0
    3.0411    1.9645    1.0926 H   0  0
    3.0846   -0.5162    1.0666 H   0  0
    0.1962    3.8585    0.5257 H   0  0
    1.0744    3.8900   -1.0117 H   0  0
    2.0156    4.0449    0.5490 H   0  0
  1  2  1  0
  2  3  1  0
  3  4  1  0
  4  5  1  0
  5  6  1  0
  6  7  2  0
  6  8  1  0
  8 12  1  0
  8  9  2  0
  9 10  1  0
 10 11  1  0
 11 12  2  0
 11 13  1  0
 13 14  1  0
 14 15  1  0
 14 19  1  0
 15 16  1  0
 16 17  1  0
 17 18  1  0
 19 20  2  0
 19 21  1  0
 21 22  1  0
 22 27  2  0
 22 23  1  0
 23 24  2  0
 24 25  1  0
 25 26  2  0
 25 28  1  0
 26 27  1  0
  1 29  1  0
  1 30  1  0
  1 31  1  0
  2 32  1  0
  2 33  1  0
  3 34  1  0
  3 35  1  0
  4 36  1  0
  4 37  1  0
  5 38  1  0
  9 39  1  0
 13 40  1  0
 13 41  1  0
 15 42  1  0
 15 43  1  0
 16 44  1  0
 16 45  1  0
 17 46  1  0
 17 47  1  0
 18 48  1  0
 18 49  1  0
 18 50  1  0
 21 51  1  0
 23 52  1  0
 24 53  1  0
 26 54  1  0
 27 55  1  0
 28 56  1  0
 28 57  1  0
 28 58  1  0
M  END
> <Name>
ZINC04561128

> <reference>
BDB50039514

> <quality>
0.781

> <status>
decoy

$$$$
ZINC07360740
  SciTegic06061311253D

 49 50  0  0  0  0            999 V2000
    3.0910    9.9350    4.9107 C   0  0
    1.8259    9.0859    4.7707 C   0  0
    2.0579    7.9936    3.7249 C   0  0
    0.7928    7.1446    3.5849 C   0  0
    1.0248    6.0522    2.5390 C   0  0
   -0.2213    5.2160    2.4012 C   0  0
   -1.1984    5.4687    3.0731 O   0  0
   -0.2496    4.1872    1.5310 N   0  0
   -1.3640    3.4393    1.4078 C   0  0
   -2.7437    3.7961    2.3565 S   0  0
   -1.3904    2.4070    0.5416 N   0  5
   -2.5116    1.5729    0.4817 C   0  0
   -2.3515    0.1940    0.4361 C   0  0
   -3.4608   -0.6270    0.3818 C   0  0
   -4.7295   -0.0772    0.3626 C   0  0
   -4.8921    1.2955    0.4021 C   0  0
   -3.7872    2.1219    0.4618 C   0  0
   -6.1419   -1.1280    0.2870 S   0  0
   -5.7704   -2.3527    0.9045 O   0  0
   -7.2476   -0.3547    0.7327 O   0  0
   -6.4149   -1.4672   -1.3107 N   0  0
   -5.4822   -2.2126   -2.0356 C   0  0
   -4.6697   -1.5882   -2.9735 C   0  0
   -3.7453   -2.3274   -3.6851 C   0  0
   -3.6353   -3.6894   -3.4724 C   0  0
   -4.4462   -4.3150   -2.5433 C   0  0
   -5.3691   -3.5809   -1.8245 C   0  0
    3.3308   10.3999    3.9430 H   0  0
    3.9289    9.2968    5.2278 H   0  0
    2.9248   10.7206    5.6625 H   0  0
    1.5871    8.6212    5.7387 H   0  0
    0.9879    9.7240    4.4536 H   0  0
    2.2964    8.4577    2.7565 H   0  0
    2.8949    7.3537    4.0409 H   0  0
    0.5539    6.6799    4.5529 H   0  0
   -0.0452    7.7828    3.2678 H   0  0
    1.8618    5.4123    2.8550 H   0  0
    1.2633    6.5163    1.5706 H   0  0
    0.5804    3.9725    0.9601 H   0  0
   -1.3424   -0.2437    0.4432 H   0  0
   -3.3350   -1.7194    0.3538 H   0  0
   -5.9027    1.7297    0.3860 H   0  0
   -3.9173    3.2137    0.4936 H   0  0
   -7.2724   -1.1285   -1.7699 H   0  0
   -4.7625   -0.5063   -3.1492 H   0  0
   -3.0958   -1.8322   -4.4219 H   0  0
   -2.9011   -4.2765   -4.0436 H   0  0
   -4.3561   -5.3985   -2.3766 H   0  0
   -6.0139   -4.0792   -1.0856 H   0  0
  1  2  1  0
  2  3  1  0
  3  4  1  0
  4  5  1  0
  5  6  1  0
  6  7  2  0
  6  8  1  0
  8  9  1  0
  9 10  2  0
  9 11  1  0
 11 12  1  0
 12 17  2  0
 12 13  1  0
 13 14  2  0
 14 15  1  0
 15 16  2  0
 15 18  1  0
 16 17  1  0
 18 19  2  0
 18 20  2  0
 18 21  1  0
 21 22  1  0
 22 27  2  0
 22 23  1  0
 23 24  2  0
 24 25  1  0
 25 26  2  0
 26 27  1  0
  1 28  1  0
  1 29  1  0
  1 30  1  0
  2 31  1  0
  2 32  1  0
  3 33  1  0
  3 34  1  0
  4 35  1  0
  4 36  1  0
  5 37  1  0
  5 38  1  0
  8 39  1  0
 13 40  1  0
 14 41  1  0
 16 42  1  0
 17 43  1  0
 21 44  1  0
 23 45  1  0
 24 46  1  0
 25 47  1  0
 26 48  1  0
 27 49  1  0
M  CHG  1  11  -1
M  END
> <Name>
ZINC07360740

> <reference>
BDB50039514

> <quality>
0.780

> <status>
decoy

$$$$
ZINC23901180
  SciTegic06061311253D

 49 50  0  0  0  0            999 V2000
   -3.6866    3.5920    4.5651 C   0  0
   -2.4405    2.7368    4.8028 C   0  0
   -1.8787    2.3538    3.5459 O   0  0
   -0.7570    1.5844    3.5794 C   0  0
   -0.2148    1.2025    4.7959 C   0  0
    0.9278    0.4261    4.8315 C   0  0
    1.5312    0.0215    3.6483 C   0  0
    0.9871    0.3972    2.4277 C   0  0
   -0.1579    1.1757    2.3918 C   0  0
   -0.6928    1.5449    1.1973 O   0  0
   -0.0217    1.0942    0.0189 C   0  0
   -0.7642    1.6046   -1.2177 C   0  0
    2.6890   -0.7663    3.6862 N   0  0
    3.6000   -0.5788    4.6616 C   0  0
    3.3793    0.2129    5.5536 O   0  0
    4.8930   -1.3528    4.6440 C   0  0
    5.7058   -0.9721    5.8019 N   0  0
    6.9591   -1.5619    6.0012 C   0  0
    7.4302   -2.5120    5.1049 C   0  0
    8.6698   -3.0893    5.2992 C   0  0
    9.4388   -2.7290    6.3958 C   0  0
    8.9667   -1.7838    7.2945 C   0  0
    7.7299   -1.2014    7.0986 C   0  0
   10.6567   -3.3024    6.5898 O   0  0
   11.0802   -4.2679    5.6251 C   0  0  1  0  0  0
   11.1436   -3.6688    4.3625 F   0  0
   12.3448   -4.7531    5.9751 F   0  0
   10.1668   -5.3271    5.5934 F   0  0
   -4.4271    3.0121    3.9947 H   0  0
   -3.4113    4.4931    3.9975 H   0  0
   -4.1196    3.8872    5.5323 H   0  0
   -1.7004    3.3175    5.3729 H   0  0
   -2.7157    1.8357    5.3704 H   0  0
   -0.6944    1.5177    5.7343 H   0  0
    1.3598    0.1283    5.7983 H   0  0
    1.4648    0.0770    1.4900 H   0  0
    1.0082    1.4804    0.0129 H   0  0
   -0.0010   -0.0055    0.0053 H   0  0
   -0.7849    2.7043   -1.2063 H   0  0
   -1.7944    1.2191   -1.2132 H   0  0
   -0.2481    1.2580   -2.1252 H   0  0
    2.8440   -1.4888    2.9687 H   0  0
    4.6761   -2.4303    4.6873 H   0  0
    5.4445   -1.1266    3.7195 H   0  0
    5.3548   -0.2704    6.4692 H   0  0
    6.8163   -2.8048    4.2404 H   0  0
    9.0473   -3.8350    4.5841 H   0  0
    9.5776   -1.4980    8.1635 H   0  0
    7.3555   -0.4522    7.8116 H   0  0
  1  2  1  0
  2  3  1  0
  3  4  1  0
  4  9  2  0
  4  5  1  0
  5  6  2  0
  6  7  1  0
  7  8  2  0
  7 13  1  0
  8  9  1  0
  9 10  1  0
 10 11  1  0
 11 12  1  0
 13 14  1  0
 14 15  2  0
 14 16  1  0
 16 17  1  0
 17 18  1  0
 18 23  2  0
 18 19  1  0
 19 20  2  0
 20 21  1  0
 21 22  2  0
 21 24  1  0
 22 23  1  0
 24 25  1  0
 25 26  1  0
 25 27  1  0
 25 28  1  0
  1 29  1  0
  1 30  1  0
  1 31  1  0
  2 32  1  0
  2 33  1  0
  5 34  1  0
  6 35  1  0
  8 36  1  0
 11 37  1  0
 11 38  1  0
 12 39  1  0
 12 40  1  0
 12 41  1  0
 13 42  1  0
 16 43  1  0
 16 44  1  0
 17 45  1  0
 19 46  1  0
 20 47  1  0
 22 48  1  0
 23 49  1  0
M  END
> <Name>
ZINC23901180

> <reference>
BDB50039514

> <quality>
0.780

> <status>
decoy

$$$$
ZINC06592690
  SciTegic06061311253D

 52 53  0  0  0  0            999 V2000
    5.0857   -2.9769   -0.0356 C   0  0
    3.6655   -2.4078   -0.0277 C   0  0
    3.7288   -0.8791   -0.0160 C   0  0
    2.3086   -0.3100   -0.0081 C   0  0
    2.3677    1.1178    0.0029 O   0  0
    1.1833    1.7843    0.0109 C   0  0
   -0.0114    1.0763    0.0083 C   0  0
   -1.2196    1.7484    0.0112 C   0  0
   -1.2468    3.1279    0.0273 C   0  0
   -0.0505    3.8490    0.0296 C   0  0
    1.1686    3.1684    0.0213 C   0  0
   -0.0751    5.3237    0.0411 C   0  0
   -1.2094    5.9536    0.0488 N   0  0
   -1.2327    7.3544    0.0598 N   0  0
   -2.4109    8.0087    0.0677 C   0  0
   -3.4513    7.3848    0.0654 O   0  0
   -2.4360    9.5155    0.0795 C   0  0
   -3.8650    9.9941    0.0867 C   0  0
   -4.7736    9.1907    0.0826 O   0  0
   -4.1333   11.3148    0.0977 N   0  0
   -5.4564   11.7607    0.0067 C   0  0
   -5.7499   12.9341   -0.6763 C   0  0
   -7.0572   13.3691   -0.7696 C   0  0
   -8.0731   12.6443   -0.1738 C   0  0
   -7.7840   11.4779    0.5123 C   0  0
   -6.4778   11.0343    0.6037 C   0  0
   -9.0624   10.5708    1.2584 Cl  0  0
   -9.4978   13.1254   -0.2723 C   0  0
    5.6220   -2.6397    0.8637 H   0  0
    5.6176   -2.6258   -0.9322 H   0  0
    5.0410   -4.0760   -0.0440 H   0  0
    3.1301   -2.7452   -0.9274 H   0  0
    3.1336   -2.7589    0.8688 H   0  0
    4.2637   -0.5410    0.8837 H   0  0
    4.2595   -0.5261   -0.9125 H   0  0
    1.7732   -0.6474   -0.9079 H   0  0
    1.7767   -0.6612    0.8884 H   0  0
    0.0036   -0.0236    0.0039 H   0  0
   -2.1623    1.1816    0.0006 H   0  0
   -2.2098    3.6593    0.0383 H   0  0
    2.1143    3.7303    0.0230 H   0  0
    0.8682    5.8895    0.0431 H   0  0
   -0.3494    7.8842    0.0618 H   0  0
   -1.9262    9.8989   -0.8167 H   0  0
   -1.9220    9.8839    0.9795 H   0  0
   -3.3643   11.9959    0.1731 H   0  0
   -4.9415   13.5164   -1.1425 H   0  0
   -7.2908   14.2933   -1.3185 H   0  0
   -6.2481   10.1069    1.1488 H   0  0
   -9.6961   13.2142   -1.3506 H   0  0
   -9.4850   14.1447    0.1412 H   0  0
  -10.2234   12.4739    0.2367 H   0  0
  1  2  1  0
  2  3  1  0
  3  4  1  0
  4  5  1  0
  5  6  1  0
  6 11  2  0
  6  7  1  0
  7  8  2  0
  8  9  1  0
  9 10  2  0
 10 11  1  0
 10 12  1  0
 12 13  2  0
 13 14  1  0
 14 15  1  0
 15 16  2  0
 15 17  1  0
 17 18  1  0
 18 19  2  0
 18 20  1  0
 20 21  1  0
 21 26  2  0
 21 22  1  0
 22 23  2  0
 23 24  1  0
 24 25  2  0
 24 28  1  0
 25 26  1  0
 25 27  1  0
  1 29  1  0
  1 30  1  0
  1 31  1  0
  2 32  1  0
  2 33  1  0
  3 34  1  0
  3 35  1  0
  4 36  1  0
  4 37  1  0
  7 38  1  0
  8 39  1  0
  9 40  1  0
 11 41  1  0
 12 42  1  0
 14 43  1  0
 17 44  1  0
 17 45  1  0
 20 46  1  0
 22 47  1  0
 23 48  1  0
 26 49  1  0
 28 50  1  0
 28 51  1  0
 28 52  1  0
M  END
> <Name>
ZINC06592690

> <reference>
BDB50039514

> <quality>
0.778

> <status>
decoy

$$$$
ZINC18277325
  SciTegic06061311253D

 51 52  0  0  0  0            999 V2000
   -7.5491    2.3303   12.7780 C   0  0
   -7.6738    3.8518   12.6762 C   0  0
   -6.2988    4.4911   12.8802 C   0  0  2  0  0  0
   -5.7614    4.1148   14.2624 C   0  0
   -6.7238    4.6207   15.3388 C   0  0
   -6.4189    5.9549   12.7823 C   0  0
   -6.5146    7.1224   12.7041 C   0  0
   -5.3773    4.0066   11.8495 N   0  0
   -5.6478    4.2247   10.5473 C   0  0
   -6.6541    4.8220   10.2288 O   0  0
   -4.6999    3.7264    9.4870 C   0  0
   -5.3371    4.1725    7.8483 S   0  0
   -4.1338    3.5290    6.7334 C   0  0
   -3.0198    2.8716    6.9937 N   0  0
   -2.2168    2.4497    5.9594 N   0  0
   -2.5592    2.7127    4.7133 C   0  0
   -4.0963    3.5917    4.9486 S   0  0
   -1.9025    2.3875    3.5320 N   0  0
   -0.6357    1.7939    3.5762 C   0  0
    0.0412    1.6876    4.7828 C   0  0
    1.2917    1.1007    4.8237 C   0  0
    1.8711    0.6183    3.6646 C   0  0
    1.2002    0.7155    2.4594 C   0  0
   -0.0510    1.3075    2.4086 C   0  0
   -0.7096    1.4089    1.2230 O   0  0
   -0.0491    0.8887    0.0675 C   0  0
    2.0255    0.9855    6.1350 C   0  0
   -7.1630    2.0587   13.7716 H   0  0
   -6.8575    1.9655   12.0043 H   0  0
   -8.5374    1.8701   12.6314 H   0  0
   -8.0596    4.1225   11.6823 H   0  0
   -8.3654    4.2167   13.4499 H   0  0
   -4.7729    4.5741   14.4102 H   0  0
   -5.6722    3.0209   14.3359 H   0  0
   -7.7127    4.1614   15.1932 H   0  0
   -6.8140    5.7146   15.2667 H   0  0
   -6.3380    4.3505   16.3329 H   0  0
   -6.6043    8.2163   12.6308 H   0  0
   -4.5227    3.4993   12.1200 H   0  0
   -3.7114    4.1864    9.6331 H   0  0
   -4.6096    2.6325    9.5590 H   0  0
   -2.3481    2.5834    2.6243 H   0  0
   -0.4174    2.0704    5.7065 H   0  0
    2.8685    0.1559    3.7013 H   0  0
    1.6603    0.3226    1.5407 H   0  0
    0.1603   -0.1698    0.2812 H   0  0
    0.9139    1.4158   -0.0018 H   0  0
   -0.6426    1.0068   -0.8511 H   0  0
    1.3419    0.4356    6.7985 H   0  0
    2.0922    2.0148    6.5173 H   0  0
    3.0104    0.5028    6.0523 H   0  0
  1  2  1  0
  2  3  1  0
  3  4  1  0
  3  6  1  0
  3  8  1  0
  4  5  1  0
  6  7  3  0
  8  9  1  0
  9 10  2  0
  9 11  1  0
 11 12  1  0
 12 13  1  0
 13 17  1  0
 13 14  2  0
 14 15  1  0
 15 16  2  0
 16 17  1  0
 16 18  1  0
 18 19  1  0
 19 24  2  0
 19 20  1  0
 20 21  2  0
 21 22  1  0
 21 27  1  0
 22 23  2  0
 23 24  1  0
 24 25  1  0
 25 26  1  0
  1 28  1  0
  1 29  1  0
  1 30  1  0
  2 31  1  0
  2 32  1  0
  4 33  1  0
  4 34  1  0
  5 35  1  0
  5 36  1  0
  5 37  1  0
  7 38  1  0
  8 39  1  0
 11 40  1  0
 11 41  1  0
 18 42  1  0
 20 43  1  0
 22 44  1  0
 23 45  1  0
 26 46  1  0
 26 47  1  0
 26 48  1  0
 27 49  1  0
 27 50  1  0
 27 51  1  0
M  END
> <Name>
ZINC18277325

> <reference>
BDB50039514

> <quality>
0.775

> <status>
decoy

$$$$
ZINC17176491
  SciTegic06061311253D

 62 65  0  0  1  0            999 V2000
   -8.9589   10.4288   -6.3227 C   0  0
   -8.1002   10.2063   -5.0762 C   0  0  1  0  0  0
   -8.9299    9.8137   -3.9717 O   0  0
   -9.0460    8.3843   -4.0474 C   0  0  2  0  0  0
   -8.7846    7.7528   -2.6656 C   0  0  2  0  0  0
   -7.7456    6.6524   -2.9627 C   0  0  1  0  0  0
   -7.0016    7.1200   -4.0957 O   0  0
   -7.8548    7.9227   -4.9183 C   0  0  2  0  0  0
   -7.1625    9.1296   -5.2821 O   0  0
   -6.8169    6.4638   -1.7615 C   0  0
   -4.8977    5.2476   -0.9611 N   0  0
   -4.9402    3.8535   -0.5002 C   0  0
   -4.1793    3.7299    0.8214 C   0  0  1  0  0  0
   -4.2108    2.2703    1.3257 C   0  0  2  0  0  0
   -2.8369    2.0761    1.9935 C   0  0  2  0  0  0
   -2.0833    3.4052    1.7320 C   0  0  2  0  0  0
   -2.7753    4.0356    0.6315 O   0  0
   -0.7817    3.0097    1.2647 O   0  0
   -0.7288    1.5792    1.2668 C   0  0  1  0  0  0
   -2.0772    1.0868    1.2831 O   0  0
   -0.0127    1.0858    0.0080 C   0  0
    0.0157    1.0906    2.5109 C   0  0
   -4.3678    1.3655    0.2308 O   0  0
   -5.7209    0.9744   -0.0105 C   0  0
   -3.5326    5.6441   -1.3071 O   0  0
   -9.9840    7.1828   -2.1380 O   0  0
  -10.0109    7.1026   -0.7115 C   0  0
   -7.3384   11.4870   -4.7292 C   0  0
   -5.7994    5.4482   -2.0918 N   0  3
   -9.5077    9.5023   -6.5473 H   0  0
   -8.3009   10.6724   -7.1698 H   0  0
   -9.6684   11.2518   -6.1513 H   0  0
  -10.0411    8.1044   -4.4235 H   0  0
   -8.4368    8.4818   -1.9189 H   0  0
   -8.2244    5.6822   -3.1613 H   0  0
   -8.1618    7.3458   -5.8032 H   0  0
   -6.3211    7.4173   -1.5269 H   0  0
   -7.4018    6.1280   -0.8926 H   0  0
   -5.9864    3.5485   -0.3503 H   0  0
   -4.4728    3.2026   -1.2538 H   0  0
   -4.6573    4.4224    1.5299 H   0  0
   -5.0477    2.0767    2.0128 H   0  0
   -2.9555    1.7928    3.0497 H   0  0
   -2.0259    4.0690    2.6073 H   0  0
    1.0101    1.4900   -0.0126 H   0  0
   -0.5593    1.4307   -0.8821 H   0  0
    0.0266   -0.0135    0.0120 H   0  0
   -0.5106    1.4388    3.4119 H   0  0
    1.0387    1.4948    2.5067 H   0  0
    0.0550   -0.0087    2.5102 H   0  0
   -6.3013    1.8890   -0.2020 H   0  0
   -6.1005    0.5079    0.9105 H   0  0
   -5.7954    0.2794   -0.8599 H   0  0
   -3.1985    5.0486   -2.0240 H   0  0
   -9.8841    8.1226   -0.3196 H   0  0
   -9.1466    6.4992   -0.3970 H   0  0
  -10.9499    6.6588   -0.3492 H   0  0
   -8.0577   12.2972   -4.5389 H   0  0
   -6.6921   11.7655   -5.5746 H   0  0
   -6.7227   11.3221   -3.8327 H   0  0
   -5.2563    5.7609   -2.9092 H   0  0
   -6.2661    4.5582   -2.3176 H   0  0
  1  2  1  0
  2  9  1  0
  2  3  1  0
  2 28  1  0
  3  4  1  0
  4  8  1  0
  4  5  1  0
  5  6  1  0
  5 26  1  0
  6  7  1  0
  6 10  1  0
  7  8  1  0
  8  9  1  0
 10 29  1  0
 11 12  1  0
 11 25  1  0
 11 29  1  0
 12 13  1  0
 13 17  1  0
 13 14  1  0
 14 15  1  0
 14 23  1  0
 15 20  1  0
 15 16  1  0
 16 17  1  0
 16 18  1  0
 18 19  1  0
 19 20  1  0
 19 21  1  0
 19 22  1  0
 23 24  1  0
 26 27  1  0
  1 30  1  0
  1 31  1  0
  1 32  1  0
  4 33  1  0
  5 34  1  0
  6 35  1  0
  8 36  1  0
 10 37  1  0
 10 38  1  0
 12 39  1  0
 12 40  1  0
 13 41  1  0
 14 42  1  0
 15 43  1  0
 16 44  1  0
 21 45  1  0
 21 46  1  0
 21 47  1  0
 22 48  1  0
 22 49  1  0
 22 50  1  0
 24 51  1  0
 24 52  1  0
 24 53  1  0
 25 54  1  0
 27 55  1  0
 27 56  1  0
 27 57  1  0
 28 58  1  0
 28 59  1  0
 28 60  1  0
 29 61  1  0
 29 62  1  0
M  CHG  1  29   1
M  END
> <Name>
ZINC17176491

> <reference>
BDB50021144

> <quality>
0.886

> <status>
decoy

$$$$
ZINC25015994
  SciTegic06061311253D

 48 50  0  0  1  0            999 V2000
    9.3826    9.3840   -3.6795 C   0  0
    9.5060    7.9003   -3.9127 C   0  0
    9.9428    6.9301   -2.9818 C   0  0
    9.8798    5.7649   -3.6695 C   0  0
    9.4306    6.0711   -4.8947 O   0  0
    9.2319    7.2582   -5.0114 N   0  0
   10.2412    4.3944   -3.1575 C   0  0
   10.4572    7.1798   -1.3152 S   0  0
   10.8907    8.5299   -1.2219 O   0  0
   11.2990    6.0847   -0.9815 O   0  0
    9.1096    7.0486   -0.3618 N   0  0
    8.4030    5.7689   -0.2645 C   0  0  1  0  0  0
    8.8995    5.0043    0.9642 C   0  0
    6.9228    6.0210   -0.1350 C   0  0
    6.4998    7.1577   -0.1250 O   0  0
    6.0692    4.9833   -0.0303 N   0  0
    4.6875    5.2114   -0.0212 C   0  0
    3.8519    4.3878    0.7335 C   0  0
    2.5021    4.5929    0.7563 C   0  0
    1.9435    5.6338    0.0208 C   0  0
    2.7815    6.4690   -0.7433 C   0  0
    4.1560    6.2527   -0.7603 C   0  0
    1.8652    7.4322   -1.3691 C   0  0
    0.6563    7.1177   -0.9530 N   0  0
    0.6678    6.1006   -0.1698 N   0  0
    2.2274    8.5336   -2.2760 C   0  0
    3.3910    8.7162   -2.5760 O   0  0
    1.2686    9.3397   -2.7739 O   0  0
    1.6986   10.4050   -3.6618 C   0  0
    8.3350    9.5813   -3.9510 H   0  0
    9.9903    9.8043   -4.4944 H   0  0
    9.6623    9.7454   -2.6789 H   0  0
    9.6194    4.3104   -2.2540 H   0  0
   11.2703    4.5424   -2.7983 H   0  0
   10.1262    3.5581   -3.8628 H   0  0
    8.7682    7.8666    0.1628 H   0  0
    8.5959    5.1738   -1.1693 H   0  0
    8.7068    5.5985    1.8696 H   0  0
    9.9798    4.8196    0.8706 H   0  0
    8.3693    4.0433    1.0378 H   0  0
    6.4331    4.0225    0.0430 H   0  0
    4.2858    3.5628    1.3175 H   0  0
    1.8561    3.9351    1.3563 H   0  0
    4.8134    6.9034   -1.3557 H   0  0
   -0.1725    5.6882    0.2600 H   0  0
    2.2354    9.9200   -4.4904 H   0  0
    2.4244   11.0067   -3.0951 H   0  0
    0.8606   11.0177   -4.0255 H   0  0
  1  2  1  0
  2  6  2  0
  2  3  1  0
  3  4  2  0
  3  8  1  0
  4  5  1  0
  4  7  1  0
  5  6  1  0
  8  9  2  0
  8 10  2  0
  8 11  1  0
 11 12  1  0
 12 13  1  0
 12 14  1  0
 14 15  2  0
 14 16  1  0
 16 17  1  0
 17 22  1  0
 17 18  2  0
 18 19  1  0
 19 20  2  0
 20 25  1  0
 20 21  1  0
 21 22  2  0
 21 23  1  0
 23 24  2  0
 23 26  1  0
 24 25  1  0
 26 27  2  0
 26 28  1  0
 28 29  1  0
  1 30  1  0
  1 31  1  0
  1 32  1  0
  7 33  1  0
  7 34  1  0
  7 35  1  0
 11 36  1  0
 12 37  1  0
 13 38  1  0
 13 39  1  0
 13 40  1  0
 16 41  1  0
 18 42  1  0
 19 43  1  0
 22 44  1  0
 25 45  1  0
 29 46  1  0
 29 47  1  0
 29 48  1  0
M  END
> <Name>
ZINC25015994

> <reference>
BDB50021144

> <quality>
0.829

> <status>
decoy

$$$$
ZINC20887740
  SciTegic06061311253D

 49 51  0  0  0  0            999 V2000
    9.7506   -4.9896   -3.6320 C   0  0
    8.8021   -4.1645   -2.8010 C   0  0
    8.9698   -2.7932   -2.7219 C   0  0
    8.1013   -2.0315   -1.9679 C   0  0
    7.0596   -2.6484   -1.2737 C   0  0
    6.8962   -4.0315   -1.3572 C   0  0
    7.7678   -4.7813   -2.1202 C   0  0
    7.5960   -6.2487   -2.2099 N   0  0
    6.7057   -6.7970   -1.5852 O   0  0
    8.3449   -6.9079   -2.9086 O   0  0
    6.1285   -1.8381   -0.4572 C   0  0
    5.1804   -2.3704    0.0949 O   0  0
    6.3375   -0.4515   -0.3177 C   0  0
    5.4596    0.4492   -0.9172 C   0  0
    4.4877   -0.0054   -1.7686 N   0  0
    3.6812    0.9045   -2.4582 C   0  0
    4.2351    2.0626   -2.9890 C   0  0
    3.4356    2.9593   -3.6701 C   0  0
    2.0849    2.7053   -3.8240 C   0  0
    1.5303    1.5534   -3.2969 C   0  0
    2.3242    0.6525   -2.6147 C   0  0
    5.5996    2.1729   -0.5801 S   0  5
    7.4089    0.0131    0.4107 N   0  3
    7.4854   -0.2722    1.7041 C   0  0
    8.5456    0.1783    2.4631 C   0  0
    9.5382    0.9369    1.8587 C   0  0
    9.4276    1.2166    0.5042 C   0  0
    8.3434    0.7310   -0.1980 C   0  0
   10.4823    2.0363   -0.1933 C   0  0
   11.4993    1.1707   -0.7019 O   0  0
    9.1115   -5.5276   -4.3476 H   0  0
   10.1638   -5.7369   -2.9386 H   0  0
   10.5341   -4.3991   -4.1294 H   0  0
    9.7974   -2.3095   -3.2614 H   0  0
    8.2295   -0.9403   -1.9140 H   0  0
    6.0744   -4.5231   -0.8160 H   0  0
    4.3511   -1.0177   -1.9007 H   0  0
    5.3094    2.2652   -2.8669 H   0  0
    3.8736    3.8765   -4.0906 H   0  0
    1.4503    3.4212   -4.3669 H   0  0
    0.4556    1.3545   -3.4211 H   0  0
    1.8824   -0.2636   -2.1957 H   0  0
    6.6951   -0.8743    2.1762 H   0  0
    8.6036   -0.0610    3.5352 H   0  0
   10.3943    1.3085    2.4410 H   0  0
    8.2533    0.9415   -1.2739 H   0  0
   10.9282    2.7454    0.5197 H   0  0
   10.0246    2.5917   -1.0251 H   0  0
   11.0997    0.5325   -1.3447 H   0  0
  1  2  1  0
  2  7  2  0
  2  3  1  0
  3  4  2  0
  4  5  1  0
  5  6  2  0
  5 11  1  0
  6  7  1  0
  7  8  1  0
  8  9  2  0
  8 10  2  0
 11 12  2  0
 11 13  1  0
 13 14  2  0
 13 23  1  0
 14 15  1  0
 14 22  1  0
 15 16  1  0
 16 21  2  0
 16 17  1  0
 17 18  2  0
 18 19  1  0
 19 20  2  0
 20 21  1  0
 23 28  2  0
 23 24  1  0
 24 25  2  0
 25 26  1  0
 26 27  2  0
 27 28  1  0
 27 29  1  0
 29 30  1  0
  1 31  1  0
  1 32  1  0
  1 33  1  0
  3 34  1  0
  4 35  1  0
  6 36  1  0
 15 37  1  0
 17 38  1  0
 18 39  1  0
 19 40  1  0
 20 41  1  0
 21 42  1  0
 24 43  1  0
 25 44  1  0
 26 45  1  0
 28 46  1  0
 29 47  1  0
 29 48  1  0
 30 49  1  0
M  CHG  2  22  -1  23   1
M  END
> <Name>
ZINC20887740

> <reference>
BDB50021144

> <quality>
0.803

> <status>
decoy

$$$$
ZINC27609076
  SciTegic06061311253D

 46 48  0  0  0  0            999 V2000
   -8.3125    7.6738    4.8289 C   0  0
   -6.8978    7.7014    4.3102 C   0  0
   -6.3370    8.7023    3.5102 C   0  0
   -5.0498    8.3656    3.2634 C   0  0
   -4.8076    7.1885    3.8773 N   0  0
   -5.9820    6.7935    4.5309 N   0  0
   -3.5387    6.4563    3.8673 C   0  0
   -3.5165    5.5057    2.6981 C   0  0
   -4.4670    5.4458    1.9472 O   0  0
   -2.4405    4.7222    2.4870 N   0  0
   -2.4198    3.8385    1.4001 N   0  0
   -1.3437    3.0550    1.1889 C   0  0
   -0.3933    3.1149    1.9399 O   0  0
   -1.3215    2.1044    0.0198 C   0  0
   -0.0163    1.3512    0.0095 C   0  0
    0.0021   -0.0041    0.0020 C   0  0
    1.7621   -0.3122   -0.0164 S   0  0
    2.2816    1.3448   -0.0125 C   0  0
    1.1343    1.9955    0.0019 N   0  0
    3.5736    1.8542   -0.0228 N   0  0
    4.6285    1.0155   -0.0376 C   0  0
    4.4489   -0.1882   -0.0420 O   0  0
    5.9916    1.5530   -0.0484 C   0  0
    7.1993    0.8723   -0.0640 C   0  0
    8.3438    1.6300   -0.0723 C   0  0
    8.2424    2.9851   -0.0650 C   0  0
    6.5298    3.2540   -0.0530 S   0  0
   -4.0645    9.1607    2.4460 C   0  0
   -8.1725    7.5683    5.9148 H   0  0
   -8.6843    6.7016    4.4730 H   0  0
   -8.9476    8.5251    4.5426 H   0  0
   -6.8514    9.6038    3.1460 H   0  0
   -3.4348    5.8877    4.8032 H   0  0
   -2.7051    7.1682    3.7762 H   0  0
   -1.6333    4.7731    3.1248 H   0  0
   -3.2270    3.7876    0.7624 H   0  0
   -2.1547    1.3919    0.1105 H   0  0
   -1.4242    2.6714   -0.9172 H   0  0
   -0.8353   -0.7174    0.0061 H   0  0
    3.7256    2.8729   -0.0191 H   0  0
    7.2386   -0.2270   -0.0695 H   0  0
    9.3315    1.1460   -0.0847 H   0  0
    9.0511    3.7308   -0.0664 H   0  0
   -4.0898   10.1466    2.9332 H   0  0
   -4.5922    9.2844    1.4888 H   0  0
   -3.0548    8.7352    2.3488 H   0  0
  1  2  1  0
  2  6  2  0
  2  3  1  0
  3  4  2  0
  4  5  1  0
  4 28  1  0
  5  6  1  0
  5  7  1  0
  7  8  1  0
  8  9  2  0
  8 10  1  0
 10 11  1  0
 11 12  1  0
 12 13  2  0
 12 14  1  0
 14 15  1  0
 15 19  1  0
 15 16  2  0
 16 17  1  0
 17 18  1  0
 18 19  2  0
 18 20  1  0
 20 21  1  0
 21 22  2  0
 21 23  1  0
 23 27  1  0
 23 24  2  0
 24 25  1  0
 25 26  2  0
 26 27  1  0
  1 29  1  0
  1 30  1  0
  1 31  1  0
  3 32  1  0
  7 33  1  0
  7 34  1  0
 10 35  1  0
 11 36  1  0
 14 37  1  0
 14 38  1  0
 16 39  1  0
 20 40  1  0
 24 41  1  0
 25 42  1  0
 26 43  1  0
 28 44  1  0
 28 45  1  0
 28 46  1  0
M  END
> <Name>
ZINC27609076

> <reference>
BDB50021144

> <quality>
0.802

> <status>
decoy

$$$$
ZINC23916864
  SciTegic06061311253D

 46 48  0  0  0  0            999 V2000
   13.9453    3.8720   -0.1138 C   0  0
   12.8411    4.8974   -0.0962 C   0  0
   11.9799    5.0026   -1.1728 C   0  0
   10.9672    5.9419   -1.1597 C   0  0
   10.8145    6.7806   -0.0642 C   0  0
   11.6839    6.6762    1.0130 C   0  0
   12.6915    5.7316    0.9965 C   0  0
    9.7875    7.7356   -0.0482 N   0  0
    9.9245    9.0985   -0.0417 C   0  0
    8.7253    9.6082   -0.0273 N   0  0
    7.8460    8.6711   -0.0300 N   0  0
    8.4400    7.5003   -0.0367 C   0  0
    7.6511    5.9247   -0.0382 S   0  0
    5.9166    6.4417   -0.0186 C   0  0
    5.0294    5.2235   -0.0172 C   0  0
    5.5213    4.1150   -0.0282 O   0  0
    3.6892    5.3660   -0.0035 N   0  0
    2.8644    4.2335   -0.0022 N   0  0
    1.5243    4.3760    0.0115 C   0  0
    1.0307    5.4883    0.0226 O   0  0
    0.6607    3.1903    0.0129 C   0  0
   -0.7180    3.1863    0.0260 C   0  0
   -1.1250    1.8486    0.0168 C   0  0
   -0.0126    1.0758    0.0080 C   0  0
    1.0791    1.8790    0.0018 N   0  0
   -2.5233    1.3631    0.0193 N   0  0
   -2.7527    0.1669    0.0135 O   0  0
   -3.4446    2.1598    0.0271 O   0  0
   11.2214    9.8660   -0.0504 C   0  0
   13.7872    3.2654    0.7901 H   0  0
   14.8715    4.4459    0.0373 H   0  0
   13.9722    3.2633   -1.0296 H   0  0
   12.1013    4.3376   -2.0406 H   0  0
   10.2824    6.0252   -2.0165 H   0  0
   11.5705    7.3451    1.8789 H   0  0
   13.3756    5.6428    1.8533 H   0  0
    5.7036    7.0485   -0.9110 H   0  0
    5.7217    7.0377    0.8852 H   0  0
    3.2714    6.3074    0.0060 H   0  0
    3.2822    3.2921   -0.0117 H   0  0
   -1.3741    4.0691    0.0409 H   0  0
    0.0023   -0.0241    0.0062 H   0  0
    2.0587    1.5611   -0.0094 H   0  0
   11.7319    9.4576   -0.9350 H   0  0
   11.7497    9.4475    0.8189 H   0  0
   11.1436   10.9632   -0.0433 H   0  0
  1  2  1  0
  2  7  2  0
  2  3  1  0
  3  4  2  0
  4  5  1  0
  5  6  2  0
  5  8  1  0
  6  7  1  0
  8 12  1  0
  8  9  1  0
  9 10  2  0
  9 29  1  0
 10 11  1  0
 11 12  2  0
 12 13  1  0
 13 14  1  0
 14 15  1  0
 15 16  2  0
 15 17  1  0
 17 18  1  0
 18 19  1  0
 19 20  2  0
 19 21  1  0
 21 25  1  0
 21 22  2  0
 22 23  1  0
 23 24  2  0
 23 26  1  0
 24 25  1  0
 26 27  2  0
 26 28  2  0
  1 30  1  0
  1 31  1  0
  1 32  1  0
  3 33  1  0
  4 34  1  0
  6 35  1  0
  7 36  1  0
 14 37  1  0
 14 38  1  0
 17 39  1  0
 18 40  1  0
 22 41  1  0
 24 42  1  0
 25 43  1  0
 29 44  1  0
 29 45  1  0
 29 46  1  0
M  END
> <Name>
ZINC23916864

> <reference>
BDB50021144

> <quality>
0.790

> <status>
decoy

$$$$
ZINC25234507
  SciTegic06061311253D

 58 60  0  0  0  0            999 V2000
    5.8315   -0.2300   -0.4776 C   0  0
    4.3498   -0.2419   -0.2030 C   0  0
    3.6964   -1.4549    0.0424 C   0  0
    2.3603   -1.4508    0.2890 C   0  0
    1.6935   -0.2672    0.2906 N   0  0
    2.3611    0.9001    0.0473 C   0  0
    3.6769    0.8870   -0.1946 N   0  0
    1.4723    1.8859    0.1110 N   0  0
    0.2684    1.3881    0.3852 C   0  0
    0.3525    0.0780    0.5038 N   0  0
   -1.2091    2.3328    0.5554 S   0  0
   -0.6700    4.0434    0.2834 C   0  0
    1.6286   -2.7406    0.5574 C   0  0
    4.4660   -2.7505    0.0338 C   0  0
    4.4656   -3.3346   -1.3803 C   0  0
    5.2351   -4.6303   -1.3889 C   0  0
    5.7348   -5.0456   -0.3648 O   0  0
    5.3682   -5.3274   -2.5347 N   0  0
    6.1163   -6.5870   -2.5430 C   0  0  2  0  0  0
    7.6079   -6.2950   -2.7285 C   0  0
    8.3767   -7.6164   -2.7974 C   0  0
    7.8735   -8.4189   -3.9196 N   0  0
    6.4546   -8.7518   -3.7401 C   0  0
    5.6284   -7.4643   -3.6993 C   0  0
    8.6801   -9.6331   -4.1019 C   0  0
    8.3068  -10.2933   -5.4041 C   0  0
    7.5374   -9.7440   -6.1638 O   0  0
    8.8280  -11.4942   -5.7245 N   0  0
    8.4651  -12.1360   -6.9904 C   0  0
    6.2614    0.4414    0.2803 H   0  0
    5.9413    0.2635   -1.4545 H   0  0
    6.2899   -1.2298   -0.4597 H   0  0
   -0.2674    4.1947   -0.7290 H   0  0
    0.0525    4.3757    1.0434 H   0  0
   -1.5587    4.6846    0.3783 H   0  0
    2.1547   -3.1921    1.4114 H   0  0
    1.8345   -3.3708   -0.3203 H   0  0
    0.5519   -2.6135    0.7433 H   0  0
    5.5021   -2.5638    0.3525 H   0  0
    3.9928   -3.4639    0.7245 H   0  0
    4.9396   -2.6229   -2.0723 H   0  0
    3.4297   -3.5218   -1.6995 H   0  0
    4.9440   -4.9746   -3.4045 H   0  0
    5.9575   -7.1105   -1.5887 H   0  0
    7.9754   -5.7012   -1.8786 H   0  0
    7.7589   -5.7339   -3.6625 H   0  0
    9.4471   -7.4106   -2.9456 H   0  0
    8.2371   -8.1724   -1.8586 H   0  0
    6.1158   -9.3776   -4.5789 H   0  0
    6.3224   -9.3013   -2.7964 H   0  0
    4.5677   -7.7140   -3.5487 H   0  0
    5.7479   -6.9220   -4.6488 H   0  0
    8.4903  -10.3289   -3.2713 H   0  0
    9.7469   -9.3655   -4.1197 H   0  0
    9.4815  -11.9607   -5.0793 H   0  0
    8.7295  -11.4049   -7.7686 H   0  0
    7.3677  -12.2088   -6.9706 H   0  0
    8.9476  -13.1116   -7.1498 H   0  0
  1  2  1  0
  2  7  2  0
  2  3  1  0
  3  4  2  0
  3 14  1  0
  4  5  1  0
  4 13  1  0
  5 10  1  0
  5  6  1  0
  6  7  1  0
  6  8  2  0
  8  9  1  0
  9 10  2  0
  9 11  1  0
 11 12  1  0
 14 15  1  0
 15 16  1  0
 16 17  2  0
 16 18  1  0
 18 19  1  0
 19 24  1  0
 19 20  1  0
 20 21  1  0
 21 22  1  0
 22 23  1  0
 22 25  1  0
 23 24  1  0
 25 26  1  0
 26 27  2  0
 26 28  1  0
 28 29  1  0
  1 30  1  0
  1 31  1  0
  1 32  1  0
 12 33  1  0
 12 34  1  0
 12 35  1  0
 13 36  1  0
 13 37  1  0
 13 38  1  0
 14 39  1  0
 14 40  1  0
 15 41  1  0
 15 42  1  0
 18 43  1  0
 19 44  1  0
 20 45  1  0
 20 46  1  0
 21 47  1  0
 21 48  1  0
 23 49  1  0
 23 50  1  0
 24 51  1  0
 24 52  1  0
 25 53  1  0
 25 54  1  0
 28 55  1  0
 29 56  1  0
 29 57  1  0
 29 58  1  0
M  END
> <Name>
ZINC25234507

> <reference>
BDB50021144

> <quality>
0.787

> <status>
decoy

$$$$
ZINC23385931
  SciTegic06061311253D

 45 47  0  0  0  0            999 V2000
   -9.9954   -4.2026   -2.8482 C   0  0
   -8.9594   -3.8672   -1.8065 C   0  0
   -8.5527   -4.7290   -1.0562 O   0  0
   -8.4847   -2.6096   -1.7086 N   0  0
   -7.4775   -2.2835   -0.6959 C   0  0
   -7.1183   -0.8234   -0.7965 C   0  0
   -7.8229    0.1137   -0.0643 C   0  0
   -7.4928    1.4530   -0.1559 C   0  0
   -6.4579    1.8550   -0.9794 C   0  0
   -5.7567    0.9184   -1.7156 C   0  0
   -6.0840   -0.4213   -1.6207 C   0  0
   -6.0371    3.5620   -1.0961 S   0  0
   -7.1998    4.2928   -0.7311 O   0  0
   -5.3900    3.7360   -2.3492 O   0  0
   -4.9011    3.8671    0.0695 N   0  5
   -3.6799    3.1806    0.0542 N   0  0
   -2.5205    3.8678    0.0469 C   0  0
   -2.5344    5.0835    0.0535 O   0  0
   -1.2331    3.1441    0.0307 C   0  0
   -1.2152    1.7474    0.0173 C   0  0
   -0.0126    1.0758    0.0080 C   0  0
    1.1823    1.7864    0.0004 C   0  0
    1.1683    3.1765    0.0080 C   0  0
   -0.0305    3.8548    0.0231 C   0  0
    2.4023    1.1005   -0.0145 N   0  0
    3.6438    1.6343   -0.0234 C   0  0
    4.4931    0.6408   -0.0356 N   0  0
    3.8742   -0.4844   -0.0350 N   0  0
    2.5993   -0.2917   -0.0172 N   0  0
  -10.8475   -4.6191   -2.2911 H   0  0
   -9.5580   -5.0159   -3.4458 H   0  0
  -10.2837   -3.3398   -3.4666 H   0  0
   -8.8301   -1.8777   -2.3458 H   0  0
   -7.8827   -2.4927    0.3051 H   0  0
   -6.5777   -2.8940   -0.8622 H   0  0
   -8.6462   -0.2063    0.5912 H   0  0
   -8.0537    2.1988    0.4265 H   0  0
   -4.9383    1.2391   -2.3769 H   0  0
   -5.5214   -1.1674   -2.2011 H   0  0
   -3.6681    2.1507    0.0485 H   0  0
   -2.1603    1.1846    0.0142 H   0  0
    0.0024   -0.0241    0.0066 H   0  0
    2.1157    3.7354    0.0019 H   0  0
   -0.0408    4.9547    0.0292 H   0  0
    3.8932    2.7056   -0.0209 H   0  0
  1  2  1  0
  2  3  2  0
  2  4  1  0
  4  5  1  0
  5  6  1  0
  6 11  2  0
  6  7  1  0
  7  8  2  0
  8  9  1  0
  9 10  2  0
  9 12  1  0
 10 11  1  0
 12 13  2  0
 12 14  2  0
 12 15  1  0
 15 16  1  0
 16 17  1  0
 17 18  2  0
 17 19  1  0
 19 24  2  0
 19 20  1  0
 20 21  2  0
 21 22  1  0
 22 23  2  0
 22 25  1  0
 23 24  1  0
 25 29  1  0
 25 26  1  0
 26 27  2  0
 27 28  1  0
 28 29  2  0
  1 30  1  0
  1 31  1  0
  1 32  1  0
  4 33  1  0
  5 34  1  0
  5 35  1  0
  7 36  1  0
  8 37  1  0
 10 38  1  0
 11 39  1  0
 16 40  1  0
 20 41  1  0
 21 42  1  0
 23 43  1  0
 24 44  1  0
 26 45  1  0
M  CHG  1  15  -1
M  END
> <Name>
ZINC23385931

> <reference>
BDB50021144

> <quality>
0.780

> <status>
decoy

$$$$
ZINC09090079
  SciTegic06061311253D

 62 65  0  0  1  0            999 V2000
   -5.3489   -4.9358    3.1104 C   0  0
   -4.0287   -4.6170    3.8149 C   0  0
   -4.1049   -3.3174    4.4042 O   0  0
   -3.0063   -2.8778    5.0737 C   0  0
   -1.8767   -3.6892    5.1582 C   0  0
   -0.7530   -3.2622    5.8327 C   0  0
   -0.7434   -2.0114    6.4347 C   0  0
   -1.8835   -1.1854    6.3522 C   0  0
   -3.0153   -1.6282    5.6606 C   0  0
   -1.8406    0.1256    6.9963 C   0  0
   -0.7487    0.4891    7.6267 N   0  0
    0.3260   -0.3045    7.6972 C   0  0
    1.3977    0.1264    8.3518 N   0  0
    2.4727   -0.6717    8.4814 C   0  0
    3.1053   -1.0776    7.4148 N   0  0
    4.2685   -1.9568    7.4710 C   0  0
    3.8874   -2.1308    9.8495 C   0  0
    2.8963   -1.0467    9.7446 N   0  0
    5.9887   -2.8837    8.8996 C   0  0
    7.1185   -2.4861    7.9476 C   0  0
    8.2567   -3.5030    8.0541 C   0  0
    8.9125   -3.2318    5.7382 C   0  0
   10.0501   -2.7689    4.8241 C   0  0
   11.2194   -3.5464    5.0955 O   0  0
   11.6653   -3.4615    6.4517 C   0  0
   10.5441   -3.9314    7.3822 C   0  0
    0.3605   -1.5430    7.1202 N   0  0
   -3.0325    1.0459    6.9378 C   0  0
    4.9006   -1.8832    8.8012 N   0  0
    9.3489   -3.0955    7.1440 N   0  3
   -5.5366   -4.1884    2.3254 H   0  0
   -6.1706   -4.9130    3.8414 H   0  0
   -5.2909   -5.9361    2.6565 H   0  0
   -3.8420   -5.3646    4.5999 H   0  0
   -3.2070   -4.6398    3.0840 H   0  0
   -1.8817   -4.6807    4.6818 H   0  0
    0.1335   -3.9106    5.8938 H   0  0
   -3.9053   -0.9863    5.5848 H   0  0
    4.9960   -1.6502    6.7050 H   0  0
    3.9530   -2.9921    7.2746 H   0  0
    4.3633   -2.1073   10.8409 H   0  0
    3.4005   -3.1016    9.6752 H   0  0
    2.5290   -0.5811   10.5867 H   0  0
    6.3688   -2.9125    9.9314 H   0  0
    5.6029   -3.8749    8.6190 H   0  0
    6.7390   -2.4681    6.9153 H   0  0
    7.4932   -1.4879    8.2181 H   0  0
    8.6306   -3.5302    9.0882 H   0  0
    7.8900   -4.4991    7.7653 H   0  0
    8.6742   -4.2848    5.5273 H   0  0
    8.0239   -2.6066    5.5663 H   0  0
    9.7551   -2.9047    3.7731 H   0  0
   10.2645   -1.7065    5.0122 H   0  0
   12.5485   -4.1027    6.5889 H   0  0
   11.9260   -2.4196    6.6893 H   0  0
   10.3056   -4.9840    7.1696 H   0  0
   10.8642   -3.8258    8.4293 H   0  0
    1.2068   -2.1251    7.1963 H   0  0
   -3.8611    0.4554    7.3558 H   0  0
   -3.2377    1.1679    5.8640 H   0  0
   -2.8908    2.0060    7.4556 H   0  0
    9.5864   -2.1103    7.3281 H   0  0
  1  2  1  0
  2  3  1  0
  3  4  1  0
  4  9  2  0
  4  5  1  0
  5  6  2  0
  6  7  1  0
  7 27  1  0
  7  8  2  0
  8  9  1  0
  8 10  1  0
 10 11  2  0
 10 28  1  0
 11 12  1  0
 12 13  2  0
 12 27  1  0
 13 14  1  0
 14 18  1  0
 14 15  2  0
 15 16  1  0
 16 29  1  0
 17 18  1  0
 17 29  1  0
 19 20  1  0
 19 29  1  0
 20 21  1  0
 21 30  1  0
 22 23  1  0
 22 30  1  0
 23 24  1  0
 24 25  1  0
 25 26  1  0
 26 30  1  0
  1 31  1  0
  1 32  1  0
  1 33  1  0
  2 34  1  0
  2 35  1  0
  5 36  1  0
  6 37  1  0
  9 38  1  0
 16 39  1  0
 16 40  1  0
 17 41  1  0
 17 42  1  0
 18 43  1  0
 19 44  1  0
 19 45  1  0
 20 46  1  0
 20 47  1  0
 21 48  1  0
 21 49  1  0
 22 50  1  0
 22 51  1  0
 23 52  1  0
 23 53  1  0
 25 54  1  0
 25 55  1  0
 26 56  1  0
 26 57  1  0
 27 58  1  0
 28 59  1  0
 28 60  1  0
 28 61  1  0
 30 62  1  0
M  CHG  1  30   1
M  END
> <Name>
ZINC09090079

> <reference>
BDB50021144

> <quality>
0.778

> <status>
decoy

$$$$
ZINC32084387
  SciTegic06061311253D

 45 47  0  0  0  0            999 V2000
   -2.9689    1.7173   -0.9219 C   0  0
   -1.7529    2.0074   -1.6856 N   0  0
   -1.6378    2.1191   -3.0434 C   0  0
   -0.3891    2.3833   -3.3066 N   0  0
    0.2870    2.4509   -2.2156 N   0  0
   -0.4991    2.2228   -1.1891 C   0  0
   -0.0272    2.2054    0.5084 S   0  0
    1.7160    2.4020    0.3434 C   0  0
    2.5238    1.2910    0.1366 C   0  0
    3.8891    1.4458    0.0020 C   0  0
    4.4560    2.7111    0.0840 C   0  0
    3.6491    3.8213    0.2965 C   0  0
    2.2832    3.6674    0.4258 C   0  0
    5.8407    2.8672   -0.0471 N   0  0
    6.8687    1.8491    0.7585 S   0  0
    6.4444    0.5257    0.4623 O   0  0
    8.1870    2.3051    0.4873 O   0  0
    6.5968    2.0912    2.4825 C   0  0
    7.2500    3.1170    3.1462 C   0  0
    7.0408    3.3204    4.4956 C   0  0
    6.1814    2.4892    5.1990 C   0  0
    5.5232    1.4470    4.5324 C   0  0
    5.7397    1.2561    3.1655 C   0  0
    4.6064    0.5568    5.2698 C   0  0
    4.4205    0.7261    6.4594 O   0  0
    3.9750   -0.4441    4.6248 N   0  0
    5.9788    2.6846    6.5260 O   0  0
    6.6840    3.7666    7.1375 C   0  0
   -3.0019    2.5592   -0.2147 H   0  0
   -2.6631    0.8444   -0.3265 H   0  0
   -3.8975    1.5711   -1.4932 H   0  0
   -2.4491    2.0068   -3.7777 H   0  0
    2.0757    0.2880    0.0801 H   0  0
    4.5279    0.5670   -0.1702 H   0  0
    4.0983    4.8233    0.3618 H   0  0
    1.6441    4.5467    0.5941 H   0  0
    6.2203    3.6153   -0.6447 H   0  0
    7.9394    3.7733    2.5948 H   0  0
    7.5562    4.1426    5.0136 H   0  0
    5.2266    0.4403    2.6353 H   0  0
    4.1325   -0.5876    3.6171 H   0  0
    3.3350   -1.0656    5.1396 H   0  0
    6.3974    4.6739    6.5855 H   0  0
    7.7527    3.5828    6.9531 H   0  0
    6.4688    3.8613    8.2121 H   0  0
  1  2  1  0
  2  6  1  0
  2  3  1  0
  3  4  2  0
  4  5  1  0
  5  6  2  0
  6  7  1  0
  7  8  1  0
  8 13  2  0
  8  9  1  0
  9 10  2  0
 10 11  1  0
 11 12  2  0
 11 14  1  0
 12 13  1  0
 14 15  1  0
 15 16  2  0
 15 17  2  0
 15 18  1  0
 18 23  2  0
 18 19  1  0
 19 20  2  0
 20 21  1  0
 21 22  2  0
 21 27  1  0
 22 23  1  0
 22 24  1  0
 24 25  2  0
 24 26  1  0
 27 28  1  0
  1 29  1  0
  1 30  1  0
  1 31  1  0
  3 32  1  0
  9 33  1  0
 10 34  1  0
 12 35  1  0
 13 36  1  0
 14 37  1  0
 19 38  1  0
 20 39  1  0
 23 40  1  0
 26 41  1  0
 26 42  1  0
 28 43  1  0
 28 44  1  0
 28 45  1  0
M  END
> <Name>
ZINC32084387

> <reference>
BDB50021144

> <quality>
0.772

> <status>
decoy

$$$$
ZINC29762156
  SciTegic06061311253D

 43 45  0  0  1  0            999 V2000
   -5.2836    5.4644    1.4258 C   0  0
   -4.4104    6.0054    0.2919 C   0  0  2  0  0  0
   -3.0469    5.3671    0.3596 C   0  0
   -2.0608    6.0575    0.5076 O   0  0
   -2.9233    4.0291    0.2557 N   0  0
   -1.6558    3.4357    0.3187 N   0  0
   -1.5322    2.0976    0.2148 C   0  0
   -2.5209    1.4054    0.0665 O   0  0
   -0.1983    1.4732    0.2811 C   0  0
    0.9413    2.2650    0.4457 C   0  0
    2.1853    1.6760    0.5007 C   0  0
    2.3141    0.3000    0.3941 C   0  0
    1.1988   -0.4956    0.2317 C   0  0
   -0.0645    0.0803    0.1734 C   0  0
   -1.1888   -0.7184    0.0100 N   0  5
   -1.2531   -2.2130    0.7202 S   0  0
   -2.5610   -2.7174    0.4872 O   0  0
   -0.0840   -2.9084    0.3095 O   0  0
   -1.1096   -1.9699    2.4595 C   0  0
   -2.0872   -1.7714    3.3772 C   0  0
   -1.7372   -1.6028    4.7037 C   0  0
   -0.4266   -1.6410    5.0477 C   0  0
    0.3606   -1.9290    3.4714 S   0  0
   -4.2770    7.4579    0.4287 N   0  0
   -4.2116    8.1565    1.5753 C   0  0
   -4.0933    9.4238    1.2723 N   0  0
   -4.0879    9.5734   -0.0516 C   0  0
   -4.1981    8.3976   -0.6120 N   0  0
   -4.8170    5.6999    2.3937 H   0  0
   -5.3846    4.3738    1.3238 H   0  0
   -6.2790    5.9299    1.3770 H   0  0
   -4.8780    5.7697   -0.6755 H   0  0
   -3.7607    3.4428    0.1300 H   0  0
   -0.8183    4.0220    0.4444 H   0  0
    0.8451    3.3574    0.5313 H   0  0
    3.0813    2.3010    0.6299 H   0  0
    3.3120   -0.1606    0.4393 H   0  0
    1.3096   -1.5868    0.1483 H   0  0
   -3.1433   -1.7449    3.0709 H   0  0
   -2.5106   -1.4401    5.4688 H   0  0
    0.0327   -1.5247    6.0404 H   0  0
   -4.2507    7.7361    2.5910 H   0  0
   -4.0043   10.5310   -0.5863 H   0  0
  1  2  1  0
  2  3  1  0
  2 24  1  0
  3  4  2  0
  3  5  1  0
  5  6  1  0
  6  7  1  0
  7  8  2  0
  7  9  1  0
  9 14  2  0
  9 10  1  0
 10 11  2  0
 11 12  1  0
 12 13  2  0
 13 14  1  0
 14 15  1  0
 15 16  1  0
 16 17  2  0
 16 18  2  0
 16 19  1  0
 19 23  1  0
 19 20  2  0
 20 21  1  0
 21 22  2  0
 22 23  1  0
 24 28  1  0
 24 25  1  0
 25 26  2  0
 26 27  1  0
 27 28  2  0
  1 29  1  0
  1 30  1  0
  1 31  1  0
  2 32  1  0
  5 33  1  0
  6 34  1  0
 10 35  1  0
 11 36  1  0
 12 37  1  0
 13 38  1  0
 20 39  1  0
 21 40  1  0
 22 41  1  0
 25 42  1  0
 27 43  1  0
M  CHG  1  15  -1
M  END
> <Name>
ZINC29762156

> <reference>
BDB50021144

> <quality>
0.766

> <status>
decoy

$$$$
ZINC11899174
  SciTegic06061311253D

 57 59  0  0  1  0            999 V2000
   -3.1171   -2.8616    0.2261 C   0  0
   -1.6536   -2.8703    0.1598 N   0  0
   -0.8608   -3.9758    0.2518 C   0  0
    0.4251   -3.5818    0.1529 C   0  0
    0.4259   -2.1826   -0.0121 C   0  0
   -0.8595   -1.7748   -0.0077 C   0  0
   -1.3357   -0.3527   -0.1559 C   0  0  1  0  0  0
   -2.0807    0.0703    1.1118 C   0  0
   -1.2576   -0.2315    2.2856 N   0  0
   -1.6506    0.1790    3.5077 C   0  0
   -2.6862    0.7985    3.6358 O   0  0
   -0.8115   -0.1287    4.7043 C   0  0
    0.2243   -0.7483    4.5762 O   0  0
   -1.2044    0.2818    5.9265 N   0  0
   -0.3714    0.0850    7.0308 C   0  0
    1.0082    0.1652    6.8855 C   0  0
    1.8282   -0.0251    7.9800 C   0  0
    1.2783   -0.3057    9.2177 C   0  0
   -0.0938   -0.3914    9.3648 C   0  0
   -0.9203   -0.1970    8.2754 C   0  0
   -2.3891   -0.2895    8.4337 N   0  0
   -2.8744   -0.4325    9.5416 O   0  0
   -3.1124   -0.2225    7.4560 O   0  0
   -0.6100    1.8580   -0.8272 C   0  0
    0.6226    2.7210   -1.1069 C   0  0
    1.8584    1.5028    0.5805 C   0  0
    0.6257    0.6398    0.8603 C   0  0
    2.5841    3.7136   -0.0908 C   0  0
   -0.1645    0.5206   -0.3832 N   0  0
    1.4129    2.8403    0.1365 N   0  3
   -3.3981   -2.3514   -0.7070 H   0  0
   -3.3179   -2.1432    1.0345 H   0  0
   -3.6071   -3.8366    0.3652 H   0  0
   -1.2099   -5.0105    0.3839 H   0  0
    1.3106   -4.2331    0.1936 H   0  0
    1.3122   -1.5407   -0.1240 H   0  0
   -2.0226   -0.2681   -1.0109 H   0  0
   -3.0312   -0.4790    1.1804 H   0  0
   -2.2835    1.1508    1.0748 H   0  0
   -0.3786   -0.7574    2.1769 H   0  0
   -2.1188    0.7406    6.0464 H   0  0
    1.4465    0.3800    5.8997 H   0  0
    2.9201    0.0465    7.8675 H   0  0
    1.9341   -0.4610   10.0870 H   0  0
   -0.5277   -0.6147   10.3506 H   0  0
   -1.2152    2.3255   -0.0365 H   0  0
   -1.2084    1.7603   -1.7450 H   0  0
    0.3059    3.7208   -1.4386 H   0  0
    1.2349    2.2465   -1.8879 H   0  0
    2.4560    1.6002    1.4989 H   0  0
    2.4644    1.0359   -0.2100 H   0  0
    0.0129    1.1134    1.6414 H   0  0
    0.9434   -0.3599    1.1916 H   0  0
    2.2392    4.7104   -0.4028 H   0  0
    3.2117    3.2809   -0.8838 H   0  0
    3.1691    3.7995    0.8368 H   0  0
    0.8225    3.2575    0.8702 H   0  0
  1  2  1  0
  2  6  1  0
  2  3  1  0
  3  4  2  0
  4  5  1  0
  5  6  2  0
  6  7  1  0
  7  8  1  0
  7 29  1  0
  8  9  1  0
  9 10  1  0
 10 11  2  0
 10 12  1  0
 12 13  2  0
 12 14  1  0
 14 15  1  0
 15 20  2  0
 15 16  1  0
 16 17  2  0
 17 18  1  0
 18 19  2  0
 19 20  1  0
 20 21  1  0
 21 22  2  0
 21 23  2  0
 24 25  1  0
 24 29  1  0
 25 30  1  0
 26 27  1  0
 26 30  1  0
 27 29  1  0
 28 30  1  0
  1 31  1  0
  1 32  1  0
  1 33  1  0
  3 34  1  0
  4 35  1  0
  5 36  1  0
  7 37  1  0
  8 38  1  0
  8 39  1  0
  9 40  1  0
 14 41  1  0
 16 42  1  0
 17 43  1  0
 18 44  1  0
 19 45  1  0
 24 46  1  0
 24 47  1  0
 25 48  1  0
 25 49  1  0
 26 50  1  0
 26 51  1  0
 27 52  1  0
 27 53  1  0
 28 54  1  0
 28 55  1  0
 28 56  1  0
 30 57  1  0
M  CHG  1  30   1
M  END
> <Name>
ZINC11899174

> <reference>
BDB50021144

> <quality>
0.760

> <status>
decoy

$$$$
ZINC21326695
  SciTegic06061311253D

 53 55  0  0  0  0            999 V2000
   -2.8212    1.1646    4.1161 C   0  0
   -2.1810    1.9242    2.9525 C   0  0
   -1.3467    0.9574    2.1097 C   0  0
   -0.7337    1.6848    0.9956 N   0  0
    0.5071    2.2575    1.1531 C   0  0
    1.0731    2.9402    0.0959 C   0  0
    0.3605    3.0295   -1.1146 C   0  0
    0.8371    3.6272   -2.0648 O   0  0
   -0.8518    2.4505   -1.2165 N   0  0
   -1.3901    1.7938   -0.1737 C   0  0
   -2.4884    1.2851   -0.2913 O   0  0
    2.3443    3.5381    0.2260 N   0  0
    3.5282    2.7024    0.4409 C   0  0
    4.0419    2.1898   -0.9061 C   0  0
    4.4953    3.2924   -1.6939 O   0  0
    4.9981    2.9209   -2.9788 C   0  0
    2.4695    4.8780    0.1527 C   0  0
    1.4771    5.5785    0.0699 O   0  0
    3.8006    5.4920    0.1726 C   0  0
    4.1277    6.8139    0.2256 C   0  0
    5.4792    7.1954    0.2359 C   0  0
    6.2685    8.3903    0.2822 C   0  0
    7.5268    8.0692    0.2642 N   0  0
    7.6510    6.6752    0.2062 N   0  0
    6.4119    6.1487    0.1891 C   0  0
    5.3968    4.6947    0.1414 S   0  0
    8.9075    5.9227    0.1708 C   0  0
    5.7255    9.7948    0.3422 C   0  0
    1.1755    2.1505    2.3495 N   0  0
   -2.0339    0.7193    4.7420 H   0  0
   -3.4702    0.3684    3.7227 H   0  0
   -3.4212    1.8591    4.7224 H   0  0
   -2.9690    2.3689    2.3270 H   0  0
   -1.5320    2.7205    3.3458 H   0  0
   -0.5582    0.5126    2.7346 H   0  0
   -1.9944    0.1610    1.7145 H   0  0
   -1.3722    2.5115   -2.1032 H   0  0
    3.2639    1.8477    1.0810 H   0  0
    4.3135    3.2976    0.9298 H   0  0
    4.8755    1.4918   -0.7392 H   0  0
    3.2296    1.6709   -1.4361 H   0  0
    4.1919    2.3946   -3.5108 H   0  0
    5.8275    2.2162   -2.8192 H   0  0
    5.3354    3.7984   -3.5500 H   0  0
    3.3372    7.5781    0.2601 H   0  0
    9.4324    6.2980    1.0617 H   0  0
    9.4263    6.3703   -0.6897 H   0  0
    8.8290    4.8264    0.1258 H   0  0
    5.0646    9.7587    1.2208 H   0  0
    5.0579    9.8310   -0.5313 H   0  0
    6.4667   10.6070    0.3729 H   0  0
    0.7435    1.6382    3.1317 H   0  0
    2.1044    2.5805    2.4642 H   0  0
  1  2  1  0
  2  3  1  0
  3  4  1  0
  4 10  1  0
  4  5  1  0
  5  6  2  0
  5 29  1  0
  6  7  1  0
  6 12  1  0
  7  8  2  0
  7  9  1  0
  9 10  1  0
 10 11  2  0
 12 13  1  0
 12 17  1  0
 13 14  1  0
 14 15  1  0
 15 16  1  0
 17 18  2  0
 17 19  1  0
 19 26  1  0
 19 20  2  0
 20 21  1  0
 21 25  2  0
 21 22  1  0
 22 23  2  0
 22 28  1  0
 23 24  1  0
 24 25  1  0
 24 27  1  0
 25 26  1  0
  1 30  1  0
  1 31  1  0
  1 32  1  0
  2 33  1  0
  2 34  1  0
  3 35  1  0
  3 36  1  0
  9 37  1  0
 13 38  1  0
 13 39  1  0
 14 40  1  0
 14 41  1  0
 16 42  1  0
 16 43  1  0
 16 44  1  0
 20 45  1  0
 27 46  1  0
 27 47  1  0
 27 48  1  0
 28 49  1  0
 28 50  1  0
 28 51  1  0
 29 52  1  0
 29 53  1  0
M  END
> <Name>
ZINC21326695

> <reference>
BDB50021144

> <quality>
0.757

> <status>
decoy

$$$$
ZINC20745555
  SciTegic06061311253D

 57 60  0  0  1  0            999 V2000
    8.9636    7.6940   -7.5650 C   0  0
    8.4356    8.1929   -6.4077 C   0  0
    7.2619    8.9473   -6.4494 C   0  0
    6.6266    9.1913   -7.6808 C   0  0
    7.1799    8.6749   -8.8476 C   0  0
    8.3410    7.9319   -8.7847 C   0  0
    8.8773    7.4309   -9.9189 F   0  0
    5.5088    9.9511   -7.4177 N   0  0
    5.4136   10.1885   -6.0727 C   0  0
    6.4444    9.6149   -5.4328 C   0  0
    6.7078    9.6460   -3.9494 C   0  0  1  0  0  0
    5.8729   10.7276   -3.3135 C   0  0
    5.0670   10.4448   -2.4588 O   0  0
    6.0246   12.0050   -3.6966 O   0  5
    6.3554    8.3465   -3.3621 N   0  3
    6.6582    8.3187   -1.9243 C   0  0
    6.3521    6.9262   -1.3680 C   0  0
    4.9393    6.6037   -1.6121 N   0  0
    4.6365    6.6314   -3.0498 C   0  0
    4.9426    8.0240   -3.6062 C   0  0
    4.5869    5.3041   -1.0248 C   0  0
    3.0924    5.1180   -1.0768 C   0  0
    2.3899    5.9829   -1.5558 O   0  0
    2.5363    3.9906   -0.5909 N   0  0
    1.0834    3.8097   -0.6414 C   0  0
    0.7164    2.4562   -0.0298 C   0  0  1  0  0  0
   -0.8175    2.2371   -0.0697 C   0  0
   -0.9254    0.6930   -0.0401 C   0  0
    0.4556    0.2086   -0.5226 C   0  0
    1.2319    1.3765   -0.8379 O   0  0
    9.8885    7.0995   -7.5311 H   0  0
    8.9339    8.0006   -5.4461 H   0  0
    6.6937    8.8581   -9.8172 H   0  0
    4.8434   10.2903   -8.1270 H   0  0
    4.6111   10.7641   -5.5883 H   0  0
    7.7734    9.8524   -3.7705 H   0  0
    6.9301    7.6260   -3.8219 H   0  0
    7.7224    8.5496   -1.7687 H   0  0
    6.0403    9.0650   -1.4035 H   0  0
    6.5497    6.9106   -0.2860 H   0  0
    6.9895    6.1826   -1.8688 H   0  0
    3.5725    6.4003   -3.2064 H   0  0
    5.2551    5.8851   -3.5697 H   0  0
    4.7434    8.0380   -4.6879 H   0  0
    4.3046    8.7670   -3.1053 H   0  0
    4.9237    5.2700    0.0218 H   0  0
    5.0760    4.4997   -1.5938 H   0  0
    3.1329    3.2561   -0.1840 H   0  0
    0.5937    4.6135   -0.0722 H   0  0
    0.7448    3.8424   -1.6875 H   0  0
    1.1237    2.4609    0.9920 H   0  0
   -1.2892    2.6702    0.8247 H   0  0
   -1.2370    2.6312   -1.0071 H   0  0
   -1.1100    0.3461    0.9873 H   0  0
   -1.7085    0.3540   -0.7342 H   0  0
    0.3385   -0.4142   -1.4217 H   0  0
    0.9496   -0.3618    0.2778 H   0  0
  1  6  2  0
  1  2  1  0
  2  3  2  0
  3 10  1  0
  3  4  1  0
  4  5  2  0
  4  8  1  0
  5  6  1  0
  6  7  1  0
  8  9  1  0
  9 10  2  0
 10 11  1  0
 11 12  1  0
 11 15  1  0
 12 13  2  0
 12 14  1  0
 15 20  1  0
 15 16  1  0
 16 17  1  0
 17 18  1  0
 18 19  1  0
 18 21  1  0
 19 20  1  0
 21 22  1  0
 22 23  2  0
 22 24  1  0
 24 25  1  0
 25 26  1  0
 26 30  1  0
 26 27  1  0
 27 28  1  0
 28 29  1  0
 29 30  1  0
  1 31  1  0
  2 32  1  0
  5 33  1  0
  8 34  1  0
  9 35  1  0
 11 36  1  0
 15 37  1  0
 16 38  1  0
 16 39  1  0
 17 40  1  0
 17 41  1  0
 19 42  1  0
 19 43  1  0
 20 44  1  0
 20 45  1  0
 21 46  1  0
 21 47  1  0
 24 48  1  0
 25 49  1  0
 25 50  1  0
 26 51  1  0
 27 52  1  0
 27 53  1  0
 28 54  1  0
 28 55  1  0
 29 56  1  0
 29 57  1  0
M  CHG  2  14  -1  15   1
M  END
> <Name>
ZINC20745555

> <reference>
BDB50021144

> <quality>
0.747

> <status>
decoy

$$$$
ZINC24984179
  SciTegic06061311253D

 54 56  0  0  0  0            999 V2000
    5.8982   15.2278   -1.6240 C   0  0
    5.4126   15.0547   -0.1835 C   0  0
    4.1751   14.2708   -0.1762 N   0  0
    4.2401   12.8917   -0.0780 C   0  0
    3.0384   12.1629   -0.0786 C   0  0
    3.0793   10.7636    0.0251 C   0  0
    4.3337   10.1570    0.1144 C   0  0
    5.4706   10.9483    0.1028 C   0  0
    5.3993   12.2609    0.0095 N   0  0
    6.8235   10.2914    0.1988 C   0  0  1  0  0  0
    7.1723   10.0548    1.6696 C   0  0
    6.7937    8.9520   -0.5401 C   0  0
    1.8350    9.9581    0.0331 C   0  0
    0.9443   10.2238    0.8156 O   0  0
    1.6917    8.9308   -0.8275 N   0  0
    0.4620    8.1346   -0.8195 C   0  0
    0.5559    7.0405   -1.8848 C   0  0
   -0.6739    6.2443   -1.8769 N   0  0
   -0.8212    5.1880   -2.7618 C   0  0
    0.2066    4.8918   -3.6551 C   0  0
    0.0577    3.8480   -4.5282 C   0  0
   -1.1349    3.1089   -4.4908 C   0  0
   -2.1244    3.4653   -3.5731 C   0  0
   -1.9381    4.4740   -2.7469 N   0  0
   -1.3360    2.0087   -5.3851 C   0  0
   -1.4955    1.1360   -6.0946 N   0  0
    1.7677   12.9000   -0.1840 C   0  0
    0.7030   12.3128   -0.1845 O   0  0
    1.8178   14.2471   -0.2805 N   0  0
    2.9917   14.8981   -0.2811 C   0  0
    2.9832   16.1104   -0.3701 O   0  0
    5.1294   15.7520   -2.2107 H   0  0
    6.0881   14.2400   -2.0692 H   0  0
    6.8275   15.8164   -1.6302 H   0  0
    6.1818   14.5301    0.4023 H   0  0
    5.2227   16.0425    0.2618 H   0  0
    4.4182    9.0631    0.1931 H   0  0
    7.5816   10.9450   -0.2573 H   0  0
    6.4148    9.4010    2.1266 H   0  0
    7.1943   11.0173    2.2017 H   0  0
    8.1598    9.5753    1.7404 H   0  0
    6.5432    9.1210   -1.5978 H   0  0
    6.0360    8.2975   -0.0845 H   0  0
    7.7810    8.4720   -0.4704 H   0  0
    2.4468    8.7055   -1.4908 H   0  0
    0.3310    7.6720    0.1699 H   0  0
   -0.3984    8.7845   -1.0373 H   0  0
    0.6866    7.5025   -2.8745 H   0  0
    1.4151    6.3888   -1.6679 H   0  0
   -1.4290    6.4696   -1.2136 H   0  0
    1.1290    5.4912   -3.6586 H   0  0
    0.8546    3.5943   -5.2428 H   0  0
   -3.0671    2.8994   -3.5396 H   0  0
    0.9412   14.7828   -0.3548 H   0  0
  1  2  1  0
  2  3  1  0
  3 30  1  0
  3  4  1  0
  4  9  2  0
  4  5  1  0
  5  6  2  0
  5 27  1  0
  6  7  1  0
  6 13  1  0
  7  8  2  0
  8  9  1  0
  8 10  1  0
 10 11  1  0
 10 12  1  0
 13 14  2  0
 13 15  1  0
 15 16  1  0
 16 17  1  0
 17 18  1  0
 18 19  1  0
 19 24  2  0
 19 20  1  0
 20 21  2  0
 21 22  1  0
 22 23  2  0
 22 25  1  0
 23 24  1  0
 25 26  3  0
 27 28  2  0
 27 29  1  0
 29 30  1  0
 30 31  2  0
  1 32  1  0
  1 33  1  0
  1 34  1  0
  2 35  1  0
  2 36  1  0
  7 37  1  0
 10 38  1  0
 11 39  1  0
 11 40  1  0
 11 41  1  0
 12 42  1  0
 12 43  1  0
 12 44  1  0
 15 45  1  0
 16 46  1  0
 16 47  1  0
 17 48  1  0
 17 49  1  0
 18 50  1  0
 20 51  1  0
 21 52  1  0
 23 53  1  0
 29 54  1  0
M  END
> <Name>
ZINC24984179

> <reference>
BDB50021144

> <quality>
0.746

> <status>
decoy

$$$$
ZINC24877036
  SciTegic06061311253D

 47 50  0  0  1  0            999 V2000
   -2.3582    3.9966    7.7266 C   0  0
   -3.0829    4.5256    6.4873 C   0  0  1  0  0  0
   -3.1488    6.0300    6.5479 C   0  0
   -2.6376    6.6950    5.6721 O   0  0
   -3.7758    6.6362    7.5754 N   0  0
   -3.8365    8.0227    7.6312 C   0  0
   -4.4856    8.6711    8.6943 C   0  0
   -4.5052   10.0770    8.7016 C   0  0
   -5.1862   10.4395    9.8362 N   0  0
   -5.5716    9.2933   10.4653 C   0  0
   -5.1492    8.2573    9.8003 N   0  0
   -3.9193   10.7358    7.7080 N   0  0
   -3.3282   10.0847    6.7284 C   0  0
   -3.2753    8.7660    6.6844 N   0  0
   -2.3608    4.1204    5.2945 O   0  0
   -2.7061    2.9416    4.7415 C   0  0
   -3.5863    2.2705    5.2420 O   0  0
   -2.0143    2.4649    3.5264 C   0  0
   -2.3697    1.2435    2.9506 C   0  0
   -1.7199    0.8047    1.8157 C   0  0
   -0.7181    1.5718    1.2479 C   0  0
   -0.3570    2.7805    1.8166 C   0  0
   -1.0025    3.2340    2.9482 C   0  0
   -0.0127    1.0858    0.0080 C   0  0
   -0.7213    1.5711   -1.1789 N   0  0
   -1.7151    0.9005   -1.7942 C   0  0
   -2.1741   -0.1773   -1.4820 O   0  0
   -2.1410    1.7749   -2.9569 C   0  0
   -1.2491    2.9430   -2.8564 N   0  5
   -0.4578    2.7322   -1.7891 C   0  0
    0.4006    3.5097   -1.4205 O   0  0
   -2.9046    4.3028    8.6308 H   0  0
   -1.3380    4.4066    7.7590 H   0  0
   -2.3097    2.8985    7.6830 H   0  0
   -4.1028    4.1148    6.4557 H   0  0
   -4.2100    6.0713    8.3193 H   0  0
   -6.1538    9.2503   11.3976 H   0  0
   -5.2967    7.2750   10.0728 H   0  0
   -2.8609   10.6607    5.9161 H   0  0
   -3.1660    0.6327    3.4009 H   0  0
   -1.9988   -0.1573    1.3610 H   0  0
    0.4466    3.3810    1.3653 H   0  0
   -0.7208    4.1993    3.3940 H   0  0
    0.0026   -0.0141    0.0008 H   0  0
    1.0191    1.4670   -0.0002 H   0  0
   -1.9734    1.2490   -3.9084 H   0  0
   -3.1893    2.0853   -2.8354 H   0  0
  1  2  1  0
  2  3  1  0
  2 15  1  0
  3  4  2  0
  3  5  1  0
  5  6  1  0
  6 14  1  0
  6  7  2  0
  7  8  1  0
  7 11  1  0
  8  9  1  0
  8 12  2  0
  9 10  2  0
 10 11  1  0
 12 13  1  0
 13 14  2  0
 15 16  1  0
 16 17  2  0
 16 18  1  0
 18 23  2  0
 18 19  1  0
 19 20  2  0
 20 21  1  0
 21 22  2  0
 21 24  1  0
 22 23  1  0
 24 25  1  0
 25 30  1  0
 25 26  1  0
 26 27  2  0
 26 28  1  0
 28 29  1  0
 29 30  1  0
 30 31  2  0
  1 32  1  0
  1 33  1  0
  1 34  1  0
  2 35  1  0
  5 36  1  0
 10 37  1  0
 11 38  1  0
 13 39  1  0
 19 40  1  0
 20 41  1  0
 22 42  1  0
 23 43  1  0
 24 44  1  0
 24 45  1  0
 28 46  1  0
 28 47  1  0
M  CHG  1  29  -1
M  END
> <Name>
ZINC24877036

> <reference>
BDB50021144

> <quality>
0.744

> <status>
decoy

$$$$
ZINC29822290
  SciTegic06061311253D

 59 61  0  0  0  0            999 V2000
    6.1520    7.7826  -10.8623 C   0  0
    6.0215    9.2036  -11.1942 N   0  0
    6.9975   10.0108  -11.6950 C   0  0
    6.5073   11.2082  -11.8561 N   0  0
    5.2195   11.2176  -11.4773 C   0  0
    4.8939    9.9705  -11.0620 C   0  0
    3.6514    9.5492  -10.5857 N   0  0
    3.1682    8.3815  -11.3358 C   0  0
    1.7720    8.0006  -10.8377 C   0  0
    1.8304    7.7110   -9.3981 N   0  0
    2.3136    8.8787   -8.6481 C   0  0
    3.7098    9.2596   -9.1462 C   0  0
    0.5227    7.2676   -8.8969 C   0  0
    0.6736    6.7487   -7.4901 C   0  0
    1.7628    6.7483   -6.9577 O   0  0
   -0.4023    6.2851   -6.8238 N   0  0
   -0.2674    5.8211   -5.5657 C   0  0
    0.8245    5.8206   -5.0320 O   0  0
   -1.3433    5.3575   -4.8994 N   0  0
   -1.1967    4.8530   -3.5318 C   0  0
   -2.5587    4.3912   -3.0097 C   0  0
   -2.4078    3.8723   -1.6030 C   0  0
   -2.6427    4.6888   -0.6264 C   0  0
   -2.5248    4.3213    0.8238 C   0  0
   -2.5107    2.8005    0.9863 C   0  0
   -1.4871    2.2160    0.0047 C   0  0
   -1.9941    2.4413   -1.4214 C   0  0
    4.3126   12.3878  -11.5088 N   0  0
    3.1778   12.2906  -11.0774 O   0  0
    4.7016   13.4476  -11.9662 O   0  0
    5.3372    7.3297  -11.4462 H   0  0
    5.8177    7.7549   -9.8147 H   0  0
    7.1359    7.3209  -11.0317 H   0  0
    8.0283    9.7035  -11.9253 H   0  0
    3.1206    8.6272  -12.4069 H   0  0
    3.8549    7.5359  -11.1828 H   0  0
    1.4196    7.1088  -11.3767 H   0  0
    1.0784    8.8356  -11.0157 H   0  0
    2.3612    8.6341   -7.5767 H   0  0
    1.6265    9.7238   -8.8020 H   0  0
    4.0610   10.1508   -8.6054 H   0  0
    4.4030    8.4244   -8.9676 H   0  0
    0.1337    6.4665   -9.5426 H   0  0
   -0.1784    8.1152   -8.9013 H   0  0
   -1.3277    6.2854   -7.2761 H   0  0
   -2.2687    5.3579   -5.3517 H   0  0
   -0.4960    4.0051   -3.5268 H   0  0
   -0.8087    5.6531   -2.8842 H   0  0
   -3.2598    5.2388   -3.0140 H   0  0
   -2.9478    3.5902   -3.6554 H   0  0
   -2.9477    5.7160   -0.8750 H   0  0
   -3.3789    4.7385    1.3773 H   0  0
   -1.5927    4.7397    1.2314 H   0  0
   -2.2231    2.5419    2.0161 H   0  0
   -3.5085    2.3950    0.7628 H   0  0
   -1.3725    1.1375    0.1884 H   0  0
   -0.5194    2.7224    0.1358 H   0  0
   -1.1933    2.1984   -2.1353 H   0  0
   -2.8568    1.7852   -1.6094 H   0  0
  1  2  1  0
  2  6  1  0
  2  3  1  0
  3  4  2  0
  4  5  1  0
  5  6  2  0
  5 28  1  0
  6  7  1  0
  7 12  1  0
  7  8  1  0
  8  9  1  0
  9 10  1  0
 10 11  1  0
 10 13  1  0
 11 12  1  0
 13 14  1  0
 14 15  2  0
 14 16  1  0
 16 17  1  0
 17 18  2  0
 17 19  1  0
 19 20  1  0
 20 21  1  0
 21 22  1  0
 22 27  1  0
 22 23  2  0
 23 24  1  0
 24 25  1  0
 25 26  1  0
 26 27  1  0
 28 29  2  0
 28 30  2  0
  1 31  1  0
  1 32  1  0
  1 33  1  0
  3 34  1  0
  8 35  1  0
  8 36  1  0
  9 37  1  0
  9 38  1  0
 11 39  1  0
 11 40  1  0
 12 41  1  0
 12 42  1  0
 13 43  1  0
 13 44  1  0
 16 45  1  0
 19 46  1  0
 20 47  1  0
 20 48  1  0
 21 49  1  0
 21 50  1  0
 23 51  1  0
 24 52  1  0
 24 53  1  0
 25 54  1  0
 25 55  1  0
 26 56  1  0
 26 57  1  0
 27 58  1  0
 27 59  1  0
M  END
> <Name>
ZINC29822290

> <reference>
BDB50021144

> <quality>
0.744

> <status>
decoy

$$$$
ZINC31536906
  SciTegic06061311253D

 48 49  0  0  0  0            999 V2000
   -9.2209    7.0658   -3.8743 C   0  0
   -8.2882    8.2390   -3.5668 C   0  0  2  0  0  0
   -8.0700    9.0636   -4.8371 C   0  0
   -6.9439    7.7048   -3.0684 C   0  0
   -8.8912    9.0844   -2.5335 N   0  0
   -9.0767    8.5045   -0.9935 S   0  0
   -9.6372    7.2043   -1.1138 O   0  0
   -9.7016    9.5370   -0.2432 O   0  0
   -7.4630    8.2966   -0.3172 C   0  0
   -6.7159    9.2696    0.2496 C   0  0
   -5.5099    8.6792    0.6584 C   0  0
   -5.5794    7.3612    0.3078 C   0  0
   -6.7748    7.1482   -0.2802 O   0  0
   -4.5396    6.3529    0.5361 C   0  0
   -3.4968    6.6665    1.0799 O   0  0
   -4.7385    5.0790    0.1438 N   0  0
   -3.7878    4.0962    0.4472 C   0  0
   -3.5595    3.0533   -0.4409 C   0  0
   -2.6227    2.0843   -0.1417 C   0  0
   -1.9086    2.1525    1.0476 C   0  0
   -2.1407    3.1926    1.9382 C   0  0
   -3.0738    4.1645    1.6364 C   0  0
   -0.9596    1.1703    1.3511 N   0  0
    0.5205    1.6067    1.9519 S   0  0
    0.2287    2.3948    3.0978 O   0  0
    1.2360    0.3852    2.0758 O   0  0
    1.2637    2.6375    0.6574 C   0  0
   -8.7689    6.4302   -4.6500 H   0  0
  -10.1878    7.4489   -4.2325 H   0  0
   -9.3782    6.4725   -2.9615 H   0  0
   -9.0359    9.4484   -5.1961 H   0  0
   -7.6170    8.4298   -5.6137 H   0  0
   -7.3995    9.9073   -4.6167 H   0  0
   -6.4901    7.0701   -3.8438 H   0  0
   -7.0996    7.1120   -2.1550 H   0  0
   -6.2728    8.5478   -2.8471 H   0  0
   -9.1998   10.0395   -2.7648 H   0  0
   -6.9996   10.3257    0.3683 H   0  0
   -4.6713    9.1809    1.1633 H   0  0
   -5.5897    4.8281   -0.3792 H   0  0
   -4.1251    2.9993   -1.3828 H   0  0
   -2.4419    1.2582   -0.8452 H   0  0
   -1.5812    3.2421    2.8840 H   0  0
   -3.2517    4.9929    2.3379 H   0  0
   -1.1816    0.1758    1.2008 H   0  0
    0.6701    3.5447    0.4712 H   0  0
    1.4071    2.0743   -0.2765 H   0  0
    2.2559    2.9555    1.0101 H   0  0
  1  2  1  0
  2  3  1  0
  2  4  1  0
  2  5  1  0
  5  6  1  0
  6  7  2  0
  6  8  2  0
  6  9  1  0
  9 13  1  0
  9 10  2  0
 10 11  1  0
 11 12  2  0
 12 13  1  0
 12 14  1  0
 14 15  2  0
 14 16  1  0
 16 17  1  0
 17 22  2  0
 17 18  1  0
 18 19  2  0
 19 20  1  0
 20 21  2  0
 20 23  1  0
 21 22  1  0
 23 24  1  0
 24 25  2  0
 24 26  2  0
 24 27  1  0
  1 28  1  0
  1 29  1  0
  1 30  1  0
  3 31  1  0
  3 32  1  0
  3 33  1  0
  4 34  1  0
  4 35  1  0
  4 36  1  0
  5 37  1  0
 10 38  1  0
 11 39  1  0
 16 40  1  0
 18 41  1  0
 19 42  1  0
 21 43  1  0
 22 44  1  0
 23 45  1  0
 27 46  1  0
 27 47  1  0
 27 48  1  0
M  END
> <Name>
ZINC31536906

> <reference>
BDB50021144

> <quality>
0.741

> <status>
decoy

$$$$
ZINC28265585
  SciTegic06061311253D

 56 58  0  0  1  0            999 V2000
    6.3173    2.3716    4.4207 C   0  0
    5.3800    3.0905    3.4483 C   0  0
    5.0096    2.1450    2.3039 C   0  0
    3.8982    2.9973    1.1510 S   0  0
    4.5933    4.0411    0.4826 O   0  0
    2.6442    3.2439    1.7721 O   0  0
    3.5732    1.8824   -0.0296 N   0  0
    4.3479    1.6883   -1.2725 C   0  0
    4.0656    0.2239   -1.6914 C   0  0
    2.5721    0.0704   -1.3002 C   0  0
    2.4620    0.9199   -0.0165 C   0  0  2  0  0  0
    1.1468    1.6555    0.0000 C   0  0
    1.1304    2.8682    0.0067 O   0  0
   -0.0111    0.9658    0.0074 N   0  0
   -1.2338    1.6498    0.0169 N   0  0
   -2.3917    0.9601    0.0186 C   0  0
   -2.3752   -0.2555    0.0119 O   0  0
   -3.6805    1.6810    0.0286 C   0  0
   -3.6971    3.0822    0.0422 C   0  0
   -4.8813    3.7598    0.0459 C   0  0
   -6.0847    3.0628    0.0485 C   0  0
   -6.0865    1.6560    0.0404 C   0  0
   -4.8746    0.9671    0.0304 C   0  0
   -7.3868    1.2618    0.0445 N   0  0
   -8.1590    2.3083    0.0544 C   0  0
   -7.4089    3.4439    0.0572 N   0  0
   -7.9159    4.8183    0.0672 C   0  0
   -8.0864    5.2885    1.5131 C   0  0
   -9.6655    2.2692    0.0620 C   0  0
    7.2306    2.0630    3.8909 H   0  0
    5.8129    1.4833    4.8287 H   0  0
    6.5840    3.0509    5.2438 H   0  0
    4.4670    3.3984    3.9789 H   0  0
    5.8843    3.9789    3.0403 H   0  0
    4.5041    1.2564    2.7099 H   0  0
    5.9222    1.8371    1.7725 H   0  0
    5.4218    1.8221   -1.0752 H   0  0
    3.9916    2.3775   -2.0523 H   0  0
    4.1910    0.1047   -2.7777 H   0  0
    4.6875   -0.4700   -1.1068 H   0  0
    2.3412   -0.9824   -1.0805 H   0  0
    1.9273    0.4864   -2.0883 H   0  0
    2.5111    0.2814    0.8779 H   0  0
    0.0029   -0.0641    0.0061 H   0  0
   -1.2478    2.6797    0.0226 H   0  0
   -2.7488    3.6396    0.0499 H   0  0
   -4.8842    4.8598    0.0468 H   0  0
   -4.8626   -0.1328    0.0240 H   0  0
   -8.8878    4.8556   -0.4467 H   0  0
   -7.2021    5.4763   -0.4500 H   0  0
   -7.1151    5.2530    2.0282 H   0  0
   -8.8000    4.6314    2.0317 H   0  0
   -8.4671    6.3205    1.5213 H   0  0
   -9.8972    1.6488    0.9403 H   0  0
   -9.9063    1.6587   -0.8208 H   0  0
  -10.1655    3.2490    0.0701 H   0  0
  1  2  1  0
  2  3  1  0
  3  4  1  0
  4  5  2  0
  4  6  2  0
  4  7  1  0
  7 11  1  0
  7  8  1  0
  8  9  1  0
  9 10  1  0
 10 11  1  0
 11 12  1  0
 12 13  2  0
 12 14  1  0
 14 15  1  0
 15 16  1  0
 16 17  2  0
 16 18  1  0
 18 23  1  0
 18 19  2  0
 19 20  1  0
 20 21  2  0
 21 26  1  0
 21 22  1  0
 22 23  2  0
 22 24  1  0
 24 25  2  0
 25 26  1  0
 25 29  1  0
 26 27  1  0
 27 28  1  0
  1 30  1  0
  1 31  1  0
  1 32  1  0
  2 33  1  0
  2 34  1  0
  3 35  1  0
  3 36  1  0
  8 37  1  0
  8 38  1  0
  9 39  1  0
  9 40  1  0
 10 41  1  0
 10 42  1  0
 11 43  1  0
 14 44  1  0
 15 45  1  0
 19 46  1  0
 20 47  1  0
 23 48  1  0
 27 49  1  0
 27 50  1  0
 28 51  1  0
 28 52  1  0
 28 53  1  0
 29 54  1  0
 29 55  1  0
 29 56  1  0
M  END
> <Name>
ZINC28265585

> <reference>
BDB50021144

> <quality>
0.736

> <status>
decoy

$$$$
ZINC31559766
  SciTegic06061311253D

 49 51  0  0  1  0            999 V2000
   -2.3666    9.4474   -1.5198 C   0  0
   -1.6560    9.5389   -0.1679 C   0  0  2  0  0  0
   -0.7385   10.7344   -0.1626 C   0  0
    0.5032   10.6553   -0.7650 C   0  0
    1.3429   11.7534   -0.7644 C   0  0
    0.9452   12.9273   -0.1523 C   0  0
   -0.2944   13.0047    0.4547 C   0  0
   -1.1362   11.9083    0.4495 C   0  0
    2.0184   14.3247   -0.1452 S   0  0
    2.8960   14.1684   -1.2518 O   0  0
    1.1930   15.4699    0.0167 O   0  0
    2.9524   14.2178    1.2182 N   0  0
   -0.8706    8.3179    0.0562 N   0  0
   -0.0993    8.4095    1.3030 C   0  0
   -1.7341    7.1294    0.0575 C   0  0
   -0.8799    5.8879    0.0426 C   0  0
    0.3290    5.9837    0.0320 O   0  5
   -1.4596    4.6712    0.0411 N   0  0
   -0.6741    3.5295    0.0275 C   0  0
    0.6365    3.4899    0.0147 N   0  0
    1.0279    2.2643    0.0044 N   0  0
   -0.0180    1.4735    0.0101 C   0  0
   -1.1170    2.2585    0.0190 O   0  0
    0.0021   -0.0041    0.0020 C   0  0
   -1.1954   -0.7215    0.0149 C   0  0
   -1.1696   -2.1008    0.0015 C   0  0
    0.0396   -2.7730   -0.0127 C   0  0
    1.2302   -2.0681   -0.0198 C   0  0
    1.2186   -0.6886   -0.0128 C   0  0
   -1.6205    9.3396   -2.3209 H   0  0
   -2.9553   10.3612   -1.6884 H   0  0
   -3.0365    8.5749   -1.5244 H   0  0
   -2.4030    9.6464    0.6324 H   0  0
    0.8231    9.7186   -1.2448 H   0  0
    2.3276   11.6931   -1.2510 H   0  0
   -0.6109   13.9388    0.9418 H   0  0
   -2.1226   11.9699    0.9325 H   0  0
    3.1571   13.2968    1.6313 H   0  0
    3.3286   15.0724    1.6530 H   0  0
   -0.7956    8.5574    2.1417 H   0  0
    0.5770    9.2747    1.2398 H   0  0
    0.4832    7.4893    1.4576 H   0  0
   -2.3777    7.1414   -0.8345 H   0  0
   -2.3604    7.1320    0.9618 H   0  0
   -2.1573   -0.1883    0.0357 H   0  0
   -2.1125   -2.6674    0.0021 H   0  0
    0.0545   -3.8729   -0.0184 H   0  0
    2.1881   -2.6088   -0.0311 H   0  0
    2.1658   -0.1293   -0.0189 H   0  0
  1  2  1  0
  2  3  1  0
  2 13  1  0
  3  8  2  0
  3  4  1  0
  4  5  2  0
  5  6  1  0
  6  7  2  0
  6  9  1  0
  7  8  1  0
  9 10  2  0
  9 11  2  0
  9 12  1  0
 13 14  1  0
 13 15  1  0
 15 16  1  0
 16 17  1  0
 16 18  2  0
 18 19  1  0
 19 23  1  0
 19 20  2  0
 20 21  1  0
 21 22  2  0
 22 23  1  0
 22 24  1  0
 24 29  2  0
 24 25  1  0
 25 26  2  0
 26 27  1  0
 27 28  2  0
 28 29  1  0
  1 30  1  0
  1 31  1  0
  1 32  1  0
  2 33  1  0
  4 34  1  0
  5 35  1  0
  7 36  1  0
  8 37  1  0
 12 38  1  0
 12 39  1  0
 14 40  1  0
 14 41  1  0
 14 42  1  0
 15 43  1  0
 15 44  1  0
 25 45  1  0
 26 46  1  0
 27 47  1  0
 28 48  1  0
 29 49  1  0
M  CHG  1  17  -1
M  END
> <Name>
ZINC31559766

> <reference>
BDB50021144

> <quality>
0.733

> <status>
decoy

$$$$
ZINC28691370
  SciTegic06061311253D

 48 50  0  0  0  0            999 V2000
    2.8687    0.0005   -0.0243 C   0  0
    2.5792    1.4794   -0.0146 C   0  0
    3.5852    2.3686   -0.0199 C   0  0
    2.7461    3.9415   -0.0039 S   0  0
    1.0702    3.3589    0.0094 C   0  0
    1.2100    1.9593    0.0010 C   0  0
   -0.0145    1.2147    0.0087 C   0  0
    0.0021   -0.0041    0.0020 O   0  0
   -1.1831    1.8825    0.0178 N   0  0
   -1.2208    3.2398    0.0302 C   0  0
   -0.1225    3.9466    0.0235 N   0  0
   -2.4398    1.1296    0.0196 C   0  0
   -2.8705    0.8597    1.4627 C   0  0
   -4.1633    0.0853    1.4645 C   0  0
   -4.6884   -0.2207    0.4150 O   0  0
   -4.7359   -0.2674    2.6325 N   0  0
   -5.9378   -0.9874    2.6343 N   0  0
   -6.5104   -1.3400    3.8023 C   0  0
   -5.9850   -1.0339    4.8524 O   0  0
   -7.7924   -2.1081    3.8041 C   0  0
   -8.3178   -2.4142    2.7539 O   0  0
   -8.3651   -2.4607    4.9721 N   0  0
   -9.6218   -3.2136    4.9739 C   0  0
  -10.0461   -3.4795    6.3953 C   0  0
  -10.8283   -2.6822    7.1449 C   0  0
  -10.9688   -3.3120    8.4029 C   0  0
  -10.2641   -4.4564    8.3468 C   0  0
   -9.7121   -4.5554    7.1264 O   0  0
    5.0682    2.1011   -0.0361 C   0  0
    2.3327   -0.3838   -0.9047 H   0  0
    2.3499   -0.3920    0.8627 H   0  0
    3.9395   -0.2511   -0.0359 H   0  0
   -2.1935    3.7531    0.0462 H   0  0
   -3.2186    1.7145   -0.4916 H   0  0
   -2.2963    0.1731   -0.5044 H   0  0
   -3.0156    1.8152    1.9880 H   0  0
   -2.0923    0.2743    1.9744 H   0  0
   -4.2899   -0.0076    3.5238 H   0  0
   -6.3838   -1.2472    1.7430 H   0  0
   -7.9192   -2.2008    5.8635 H   0  0
  -10.4006   -2.6287    4.4627 H   0  0
   -9.4783   -4.1701    4.4499 H   0  0
  -11.2732   -1.7241    6.8380 H   0  0
  -11.5441   -2.9379    9.2626 H   0  0
  -10.1579   -5.1872    9.1621 H   0  0
    5.1677    1.4481   -0.9157 H   0  0
    5.1852    1.4388    0.8344 H   0  0
    5.7372    2.9743   -0.0381 H   0  0
  1  2  1  0
  2  6  1  0
  2  3  2  0
  3  4  1  0
  3 29  1  0
  4  5  1  0
  5 11  1  0
  5  6  2  0
  6  7  1  0
  7  8  2  0
  7  9  1  0
  9 10  1  0
  9 12  1  0
 10 11  2  0
 12 13  1  0
 13 14  1  0
 14 15  2  0
 14 16  1  0
 16 17  1  0
 17 18  1  0
 18 19  2  0
 18 20  1  0
 20 21  2  0
 20 22  1  0
 22 23  1  0
 23 24  1  0
 24 28  1  0
 24 25  2  0
 25 26  1  0
 26 27  2  0
 27 28  1  0
  1 30  1  0
  1 31  1  0
  1 32  1  0
 10 33  1  0
 12 34  1  0
 12 35  1  0
 13 36  1  0
 13 37  1  0
 16 38  1  0
 17 39  1  0
 22 40  1  0
 23 41  1  0
 23 42  1  0
 25 43  1  0
 26 44  1  0
 27 45  1  0
 29 46  1  0
 29 47  1  0
 29 48  1  0
M  END
> <Name>
ZINC28691370

> <reference>
BDB50021144

> <quality>
0.725

> <status>
decoy

$$$$
ZINC30706488
  SciTegic06061311253D

 47 48  0  0  0  0            999 V2000
    3.3538    2.0885   -3.1495 C   0  0
    2.9335    1.0475   -2.2083 N   0  0
    2.6737   -0.3122   -2.6879 C   0  0
    2.7520    1.4077   -0.6021 S   0  0
    3.5685    2.5420   -0.3455 O   0  0
    2.9009    0.1856    0.1075 O   0  0
    1.0838    1.9250   -0.3695 C   0  0
    0.6074    3.2362   -0.4661 C   0  0
   -0.7472    3.1948   -0.2118 C   0  0
   -1.0840    1.8820    0.0287 N   0  0
    0.0354    1.1233   -0.0646 C   0  0
   -1.6633    4.3399   -0.2051 C   0  0
   -1.2423    5.4575   -0.4399 O   0  0
   -2.9715    4.1548    0.0610 N   0  0
   -3.8256    5.2588    0.1771 C   0  0
   -3.3495    6.4521    0.7038 C   0  0
   -4.1889    7.5440    0.8148 C   0  0
   -5.5120    7.4470    0.4100 C   0  0
   -5.9933    6.2492   -0.1138 C   0  0
   -5.1495    5.1576   -0.2293 C   0  0
   -7.2903    6.1524   -0.5117 O   0  0
   -7.7147    4.8941   -1.0396 C   0  0
   -6.3644    8.5538    0.5275 N   0  0
   -5.7755   10.0820    0.2826 S   0  0
   -6.9111   10.9296    0.3891 O   0  0
   -4.6926   10.2038    1.1945 O   0  0
   -5.1583   10.0760   -1.4232 C   0  0
    2.5655    2.1100   -3.9164 H   0  0
    4.2576    1.6857   -3.6301 H   0  0
    3.5231    3.0735   -2.6901 H   0  0
    3.6050   -0.6177   -3.1872 H   0  0
    1.9130   -0.1934   -3.4735 H   0  0
    2.3639   -1.0182   -1.9033 H   0  0
    1.2013    4.1318   -0.7007 H   0  0
   -2.0293    1.5341    0.2438 H   0  0
    0.0844    0.0344    0.0832 H   0  0
   -3.3432    3.2015    0.1790 H   0  0
   -2.3027    6.5283    1.0331 H   0  0
   -3.8076    8.4909    1.2245 H   0  0
   -5.5276    4.2109   -0.6427 H   0  0
   -7.5145    4.1471   -0.2573 H   0  0
   -7.0528    4.6768   -1.8909 H   0  0
   -8.7732    4.8935   -1.3389 H   0  0
   -7.3569    8.4164    0.7661 H   0  0
   -5.9651    9.8821   -2.1453 H   0  0
   -4.3418    9.3510   -1.5561 H   0  0
   -4.7534   11.0762   -1.6371 H   0  0
  1  2  1  0
  2  3  1  0
  2  4  1  0
  4  5  2  0
  4  6  2  0
  4  7  1  0
  7 11  2  0
  7  8  1  0
  8  9  2  0
  9 10  1  0
  9 12  1  0
 10 11  1  0
 12 13  2  0
 12 14  1  0
 14 15  1  0
 15 20  2  0
 15 16  1  0
 16 17  2  0
 17 18  1  0
 18 19  2  0
 18 23  1  0
 19 20  1  0
 19 21  1  0
 21 22  1  0
 23 24  1  0
 24 25  2  0
 24 26  2  0
 24 27  1  0
  1 28  1  0
  1 29  1  0
  1 30  1  0
  3 31  1  0
  3 32  1  0
  3 33  1  0
  8 34  1  0
 10 35  1  0
 11 36  1  0
 14 37  1  0
 16 38  1  0
 17 39  1  0
 20 40  1  0
 22 41  1  0
 22 42  1  0
 22 43  1  0
 23 44  1  0
 27 45  1  0
 27 46  1  0
 27 47  1  0
M  END
> <Name>
ZINC30706488

> <reference>
BDB50021144

> <quality>
0.722

> <status>
decoy

$$$$
ZINC17582371
  SciTegic06061311253D

 47 49  0  0  0  0            999 V2000
    6.0064   12.1275   -2.3758 C   0  0
    6.4012   12.0679   -0.9227 C   0  0
    5.6045   11.6183    0.1175 C   0  0
    6.3627   11.7326    1.2684 N   0  0
    6.1026   11.4400    2.5704 C   0  0
    7.0378   11.6510    3.5245 C   0  0
    8.2906   12.1757    3.1778 C   0  0
    8.5596   12.4714    1.8750 C   0  0
    7.5733   12.2450    0.8980 C   0  0
    7.5674   12.4396   -0.4197 N   0  0
    4.2762   11.1312    0.0206 C   0  0
    3.3445   11.9126   -0.0456 O   0  0
    4.0449    9.8036    0.0016 N   0  0
    2.7296    9.3214    0.0149 N   0  0
    2.4983    7.9938   -0.0041 C   0  0
    3.4288    7.2165   -0.0327 O   0  0
    1.0834    7.4751    0.0102 C   0  0
    1.1000    6.0104   -0.0152 N   0  0
   -0.0594    5.3232   -0.0080 C   0  0
   -1.1187    5.9186    0.0196 O   0  0
   -0.0427    3.8449   -0.0337 C   0  0
    1.1725    3.1585   -0.0654 C   0  0
    1.1845    1.7791   -0.0888 C   0  0
   -0.0044    1.0728   -0.0814 C   0  0
   -1.2177    1.7467   -0.0557 C   0  0
   -1.2411    3.1312   -0.0258 C   0  0
   -2.3831    1.0475   -0.0542 O   0  0
   -2.2846   -0.3778   -0.0799 C   0  0  1  0  0  0
   -1.6078   -0.7777   -1.2372 F   0  0
   -1.5813   -0.8170    1.0469 F   0  0
    6.8054   11.5542   -2.8687 H   0  0
    6.1852   13.1819   -2.6334 H   0  0
    4.9922   11.7758   -2.6162 H   0  0
    5.1221   11.0277    2.8506 H   0  0
    6.8149   11.4104    4.5745 H   0  0
    9.0521   12.3477    3.9528 H   0  0
    9.5390   12.8833    1.5901 H   0  0
    4.8352    9.1435   -0.0227 H   0  0
    1.9393    9.9815    0.0392 H   0  0
    0.5756    7.8197    0.9231 H   0  0
    0.5452    7.8503   -0.8727 H   0  0
    1.9976    5.5058   -0.0386 H   0  0
    2.1200    3.7172   -0.0717 H   0  0
    2.1427    1.2394   -0.1134 H   0  0
    0.0114   -0.0270   -0.0959 H   0  0
   -2.2017    3.6663    0.0041 H   0  0
   -3.2939   -0.8152   -0.0757 H   0  0
  1  2  1  0
  2 10  1  0
  2  3  2  0
  3  4  1  0
  3 11  1  0
  4  9  1  0
  4  5  1  0
  5  6  2  0
  6  7  1  0
  7  8  2  0
  8  9  1  0
  9 10  2  0
 11 12  2  0
 11 13  1  0
 13 14  1  0
 14 15  1  0
 15 16  2  0
 15 17  1  0
 17 18  1  0
 18 19  1  0
 19 20  2  0
 19 21  1  0
 21 26  2  0
 21 22  1  0
 22 23  2  0
 23 24  1  0
 24 25  2  0
 25 26  1  0
 25 27  1  0
 27 28  1  0
 28 29  1  0
 28 30  1  0
  1 31  1  0
  1 32  1  0
  1 33  1  0
  5 34  1  0
  6 35  1  0
  7 36  1  0
  8 37  1  0
 13 38  1  0
 14 39  1  0
 17 40  1  0
 17 41  1  0
 18 42  1  0
 22 43  1  0
 23 44  1  0
 24 45  1  0
 26 46  1  0
 28 47  1  0
M  END
> <Name>
ZINC17582371

> <reference>
BDB50021144

> <quality>
0.721

> <status>
decoy

$$$$
ZINC22479283
  SciTegic06061311253D

 45 47  0  0  0  0            999 V2000
    0.0359    1.1592    0.0195 C   0  0
   -1.1707    1.8426    0.0287 C   0  0
   -1.1439    3.2286    0.0307 C   0  0
    0.0758    3.8787    0.0136 C   0  0
    1.2038    3.1960    0.0001 N   0  0
    1.2163    1.8772    0.0024 C   0  0
   -2.4284    4.0166    0.0456 C   0  0
   -2.8625    4.2690   -1.3307 N   0  0
   -3.9950    4.9613   -1.5639 C   0  0
   -4.6562    5.3761   -0.6326 O   0  0
   -4.4337    5.2163   -2.9547 C   0  0
   -5.5792    5.9101   -3.1797 C   0  0
   -5.9843    6.1512   -4.5211 C   0  0
   -7.0055    6.7746   -4.7658 O   0  0
   -5.1715    5.6422   -5.5684 C   0  0
   -4.0465    4.9558   -5.2533 C   0  0
   -3.6965    4.7539   -3.9775 O   0  0
   -5.5175    5.8403   -6.8689 O   0  0
   -4.6464    5.2956   -7.8622 C   0  0
   -5.1871    5.6123   -9.2327 C   0  0
   -6.2171    6.2425   -9.3476 O   0  0
   -4.5262    5.1953  -10.3308 N   0  0
   -5.0754    5.4078  -11.6014 C   0  0
   -5.8126    6.5556  -11.8572 C   0  0
   -6.3497    6.7649  -13.1148 C   0  0
   -6.1613    5.8255  -14.1148 C   0  0
   -5.4318    4.6788  -13.8613 C   0  0
   -4.8880    4.4665  -12.6075 C   0  0
   -4.1749    3.3459  -12.3608 F   0  0
   -7.0628    7.8846  -13.3662 F   0  0
    0.0531    0.0594    0.0257 H   0  0
   -2.1263    1.2979    0.0343 H   0  0
    0.1058    4.9783    0.0112 H   0  0
    2.1776    1.3427   -0.0094 H   0  0
   -3.2040    3.4437    0.5749 H   0  0
   -2.2657    4.9754    0.5596 H   0  0
   -2.3021    3.9173   -2.1201 H   0  0
   -6.1836    6.2794   -2.3381 H   0  0
   -3.4111    4.5584   -6.0585 H   0  0
   -4.5826    4.2046   -7.7371 H   0  0
   -3.6445    5.7364   -7.7530 H   0  0
   -3.6172    4.7203  -10.2355 H   0  0
   -5.9696    7.2980  -11.0609 H   0  0
   -6.5929    5.9921  -15.1128 H   0  0
   -5.2837    3.9345  -14.6576 H   0  0
  1  6  2  0
  1  2  1  0
  2  3  2  0
  3  4  1  0
  3  7  1  0
  4  5  2  0
  5  6  1  0
  7  8  1  0
  8  9  1  0
  9 10  2  0
  9 11  1  0
 11 17  1  0
 11 12  2  0
 12 13  1  0
 13 14  2  0
 13 15  1  0
 15 16  2  0
 15 18  1  0
 16 17  1  0
 18 19  1  0
 19 20  1  0
 20 21  2  0
 20 22  1  0
 22 23  1  0
 23 28  2  0
 23 24  1  0
 24 25  2  0
 25 26  1  0
 25 30  1  0
 26 27  2  0
 27 28  1  0
 28 29  1  0
  1 31  1  0
  2 32  1  0
  4 33  1  0
  6 34  1  0
  7 35  1  0
  7 36  1  0
  8 37  1  0
 12 38  1  0
 16 39  1  0
 19 40  1  0
 19 41  1  0
 22 42  1  0
 24 43  1  0
 26 44  1  0
 27 45  1  0
M  END
> <Name>
ZINC22479283

> <reference>
BDB50021144

> <quality>
0.718

> <status>
decoy

$$$$
ZINC31668658
  SciTegic06061311253D

 44 45  0  0  0  0            999 V2000
   -2.4633   -0.6395   -7.0252 C   0  0
   -3.2958   -1.0307   -5.8851 N   0  0
   -4.6120   -0.7408   -5.8808 C   0  0
   -5.1271   -0.2362   -6.8611 O   0  0
   -5.4237   -1.0336   -4.6946 C   0  0
   -5.0015   -1.6960   -3.5616 C   0  0
   -6.0926   -1.7535   -2.6888 C   0  0
   -7.1403   -1.1433   -3.2926 C   0  0
   -6.7455   -0.6969   -4.5099 N   0  0
   -7.5873    0.0192   -5.4716 C   0  0
   -6.1044   -2.4949   -1.0904 S   0  0
   -4.9905   -3.3759   -1.0431 O   0  0
   -7.4349   -2.9360   -0.8572 O   0  0
   -5.8046   -1.2933    0.0089 N   0  5
   -4.6007   -0.5987   -0.0314 C   0  0
   -4.5968    0.7905    0.0606 C   0  0
   -3.4071    1.4808    0.0210 C   0  0
   -2.2015    0.7857   -0.1122 C   0  0
   -2.2091   -0.6088   -0.2101 C   0  0
   -3.4018   -1.2938   -0.1641 C   0  0
   -0.9243    1.5227   -0.1555 C   0  0
   -0.9194    2.7360   -0.0752 O   0  0
    0.2372    0.8512   -0.2839 N   0  0
    1.5051    1.5835   -0.3329 C   0  0
    2.6606    0.5927   -0.4878 C   0  0  1  0  0  0
    2.4960   -0.1345   -1.6716 F   0  0
    3.8714    1.2919   -0.5346 F   0  0
    2.6711   -0.2855    0.6013 F   0  0
   -2.5969    0.4484   -7.1178 H   0  0
   -2.9411   -1.1025   -7.9012 H   0  0
   -1.4059   -0.9253   -6.9238 H   0  0
   -2.8752   -1.5273   -5.0867 H   0  0
   -3.9959   -2.1026   -3.3786 H   0  0
   -8.1472   -1.0287   -2.8648 H   0  0
   -7.4938   -0.5968   -6.3781 H   0  0
   -7.0052    0.9317   -5.6676 H   0  0
   -8.6271    0.2105   -5.1680 H   0  0
   -5.5458    1.3369    0.1651 H   0  0
   -3.4047    2.5784    0.0941 H   0  0
   -1.2628   -1.1579   -0.3238 H   0  0
   -3.4079   -2.3917   -0.2323 H   0  0
    0.2334   -0.1768   -0.3476 H   0  0
    1.6357    2.1554    0.5976 H   0  0
    1.4973    2.2736   -1.1894 H   0  0
  1  2  1  0
  2  3  1  0
  3  4  2  0
  3  5  1  0
  5  9  1  0
  5  6  2  0
  6  7  1  0
  7  8  2  0
  7 11  1  0
  8  9  1  0
  9 10  1  0
 11 12  2  0
 11 13  2  0
 11 14  1  0
 14 15  1  0
 15 20  2  0
 15 16  1  0
 16 17  2  0
 17 18  1  0
 18 19  2  0
 18 21  1  0
 19 20  1  0
 21 22  2  0
 21 23  1  0
 23 24  1  0
 24 25  1  0
 25 26  1  0
 25 27  1  0
 25 28  1  0
  1 29  1  0
  1 30  1  0
  1 31  1  0
  2 32  1  0
  6 33  1  0
  8 34  1  0
 10 35  1  0
 10 36  1  0
 10 37  1  0
 16 38  1  0
 17 39  1  0
 19 40  1  0
 20 41  1  0
 23 42  1  0
 24 43  1  0
 24 44  1  0
M  CHG  1  14  -1
M  END
> <Name>
ZINC31668658

> <reference>
BDB50021144

> <quality>
0.717

> <status>
decoy

$$$$
ZINC12686113
  SciTegic06061311253D

 50 52  0  0  0  0            999 V2000
    1.8152    2.5782    1.1999 C   0  0
    1.3565    1.6969    0.0363 C   0  0  2  0  0  0
   -0.1569    1.6616   -0.0417 C   0  0
   -0.9026    2.5990   -0.2290 O   0  0
   -0.5007    0.3705    0.1342 N   0  0
    0.5734   -0.4053    0.3199 C   0  0
    0.5164   -1.6055    0.5033 O   0  0
    1.7238    0.2905    0.2751 N   0  5
   -1.8804   -0.1222    0.1268 C   0  0
   -2.4474   -0.0724    1.5470 C   0  0
   -3.8882   -0.5869    1.5393 C   0  0
   -4.4467   -0.5378    2.9381 C   0  0
   -3.7598   -0.1313    3.8514 O   0  0
   -5.7094   -0.9456    3.1743 N   0  0
   -6.2285   -0.9000    4.4748 N   0  0
   -7.4912   -1.3078    4.7110 C   0  0
   -8.2070   -1.6389    3.7843 O   0  0
   -8.0026   -1.3525    6.0853 C   0  0
   -7.3326   -0.9933    7.2216 C   0  0
   -8.1516   -1.1842    8.2560 N   0  0
   -9.3008   -1.6443    7.8308 C   0  0
   -9.2609   -1.7607    6.4893 N   0  0
  -10.2969   -2.2129    5.6603 C   0  0
  -10.7591   -1.4112    4.6253 C   0  0
  -11.7766   -1.8604    3.8067 C   0  0
  -12.3427   -3.1055    4.0239 C   0  0
  -11.8866   -3.9044    5.0591 C   0  0
  -10.8661   -3.4606    5.8768 C   0  0
  -13.3415   -3.5411    3.2252 F   0  0
    1.9520    2.1922   -1.2832 C   0  0
    2.9073    2.4967    1.3028 H   0  0
    1.3375    2.2265    2.1262 H   0  0
    1.5361    3.6254    1.0113 H   0  0
   -2.4920    0.5097   -0.5340 H   0  0
   -1.8985   -1.1597   -0.2382 H   0  0
   -1.8365   -0.7045    2.2082 H   0  0
   -2.4312    0.9647    1.9133 H   0  0
   -3.9063   -1.6244    1.1743 H   0  0
   -4.4998    0.0450    0.8785 H   0  0
   -6.2927   -1.2908    2.3987 H   0  0
   -5.6452   -0.5548    5.2504 H   0  0
   -6.3013   -0.6142    7.2732 H   0  0
  -10.1619   -1.8958    8.4674 H   0  0
  -10.3151   -0.4189    4.4574 H   0  0
  -12.1376   -1.2288    2.9816 H   0  0
  -12.3375   -4.8931    5.2301 H   0  0
  -10.5044   -4.0953    6.6992 H   0  0
    3.0494    2.1659   -1.2130 H   0  0
    1.6260    3.2284   -1.4566 H   0  0
    1.6160    1.5520   -2.1122 H   0  0
  1  2  1  0
  2  8  1  0
  2  3  1  0
  2 30  1  0
  3  4  2  0
  3  5  1  0
  5  6  1  0
  5  9  1  0
  6  7  2  0
  6  8  1  0
  9 10  1  0
 10 11  1  0
 11 12  1  0
 12 13  2  0
 12 14  1  0
 14 15  1  0
 15 16  1  0
 16 17  2  0
 16 18  1  0
 18 22  1  0
 18 19  2  0
 19 20  1  0
 20 21  2  0
 21 22  1  0
 22 23  1  0
 23 28  2  0
 23 24  1  0
 24 25  2  0
 25 26  1  0
 26 27  2  0
 26 29  1  0
 27 28  1  0
  1 31  1  0
  1 32  1  0
  1 33  1  0
  9 34  1  0
  9 35  1  0
 10 36  1  0
 10 37  1  0
 11 38  1  0
 11 39  1  0
 14 40  1  0
 15 41  1  0
 19 42  1  0
 21 43  1  0
 24 44  1  0
 25 45  1  0
 27 46  1  0
 28 47  1  0
 30 48  1  0
 30 49  1  0
 30 50  1  0
M  CHG  1   8  -1
M  END
> <Name>
ZINC12686113

> <reference>
BDB50021144

> <quality>
0.714

> <status>
decoy

$$$$
ZINC27346114
  SciTegic06061311253D

 49 51  0  0  0  0            999 V2000
   10.2945   -5.2500    0.9918 C   0  0
    8.9784   -6.0277    0.9268 C   0  0
    8.3614   -5.8577   -0.4375 C   0  0
    7.4780   -4.8672   -0.8176 C   0  0
    7.1552   -5.0940   -2.1749 C   0  0
    7.8122   -6.1471   -2.5767 N   0  0
    8.5695   -6.6437   -1.5098 N   0  0
    9.4027   -7.7681   -1.5510 C   0  0
    9.5229   -8.5054   -2.7444 C   0  0
   10.3358   -9.5949   -2.7852 C   0  0
   11.0390   -9.9748   -1.6238 C   0  0
   11.7699  -10.9524   -1.6400 O   0  0
   10.8988   -9.2506   -0.4954 N   0  0
   10.0607   -8.1298   -0.4772 N   0  0
    6.9629   -3.7802    0.0344 C   0  0
    7.3163   -3.6979    1.1951 O   0  0
    6.1002   -2.8775   -0.4729 N   0  0
    5.5883   -1.7972    0.3739 C   0  0
    4.6493   -0.9328   -0.4275 C   0  0
    5.1376    0.1568   -1.1245 C   0  0
    4.2765    0.9493   -1.8598 C   0  0
    2.9275    0.6493   -1.9026 C   0  0
    2.4385   -0.4369   -1.2016 C   0  0
    3.2999   -1.2296   -0.4661 C   0  0
    0.7184   -0.8155   -1.2513 S   0  0
    0.5990   -2.2010   -0.9591 O   0  0
    0.2109   -0.2430   -2.4487 O   0  0
    0.0021   -0.0041    0.0020 N   0  0
   -0.0178    1.4608    0.0101 C   0  0
   10.1005   -4.1829    0.8083 H   0  0
   10.9862   -5.6331    0.2271 H   0  0
   10.7455   -5.3737    1.9875 H   0  0
    8.2867   -5.6446    1.6915 H   0  0
    9.1734   -7.0947    1.1101 H   0  0
    6.4697   -4.4883   -2.7858 H   0  0
    8.9615   -8.2014   -3.6402 H   0  0
   10.4435  -10.1736   -3.7145 H   0  0
   12.4083  -10.7756   -2.3758 H   0  0
    5.8008   -2.9472   -1.4560 H   0  0
    6.4274   -1.1861    0.7379 H   0  0
    5.0489   -2.2270    1.2308 H   0  0
    6.2115    0.3930   -1.0938 H   0  0
    4.6644    1.8187   -2.4109 H   0  0
    2.2434    1.2751   -2.4946 H   0  0
    2.9114   -2.0965    0.0884 H   0  0
   -0.4294   -0.5293    0.7758 H   0  0
   -0.4948    1.7347   -0.9425 H   0  0
    1.0398    1.7507   -0.0758 H   0  0
   -0.5143    1.9140    0.8808 H   0  0
  1  2  1  0
  2  3  1  0
  3  7  1  0
  3  4  2  0
  4  5  1  0
  4 15  1  0
  5  6  2  0
  6  7  1  0
  7  8  1  0
  8 14  2  0
  8  9  1  0
  9 10  2  0
 10 11  1  0
 11 12  1  0
 11 13  2  0
 13 14  1  0
 15 16  2  0
 15 17  1  0
 17 18  1  0
 18 19  1  0
 19 24  2  0
 19 20  1  0
 20 21  2  0
 21 22  1  0
 22 23  2  0
 23 24  1  0
 23 25  1  0
 25 26  2  0
 25 27  2  0
 25 28  1  0
 28 29  1  0
  1 30  1  0
  1 31  1  0
  1 32  1  0
  2 33  1  0
  2 34  1  0
  5 35  1  0
  9 36  1  0
 10 37  1  0
 12 38  1  0
 17 39  1  0
 18 40  1  0
 18 41  1  0
 20 42  1  0
 21 43  1  0
 22 44  1  0
 24 45  1  0
 28 46  1  0
 29 47  1  0
 29 48  1  0
 29 49  1  0
M  END
> <Name>
ZINC27346114

> <reference>
BDB50021144

> <quality>
0.714

> <status>
decoy

$$$$
ZINC10777316
  SciTegic06061311253D

 48 50  0  0  0  0            999 V2000
    2.1701   11.1732    9.7059 C   0  0
    2.7604   10.6895    8.3799 C   0  0  1  0  0  0
    3.7323   11.7408    7.8406 C   0  0
    3.5063    9.3725    8.6039 C   0  0
    3.9692    8.8484    7.3166 N   0  0
    3.1569    8.0141    6.6027 C   0  0
    3.6121    7.5117    5.3713 C   0  0
    4.9440    7.9257    4.9112 C   0  0
    5.3871    7.5252    3.8507 O   0  0
    5.6661    8.7586    5.6887 N   0  0
    5.1805    9.2021    6.8596 C   0  0
    5.8634    9.9511    7.5304 O   0  0
    2.8127    6.6420    4.5992 C   0  0
    1.7598    6.2302    5.0433 O   0  0
    3.2653    6.2242    3.2239 C   0  0
    2.0343    5.1158    2.4944 S   0  0
    2.7962    4.7939    0.9386 C   0  0
    3.9435    5.2732    0.5168 N   0  0
    4.1949    4.8317   -0.6636 N   0  0
    3.2352    4.0454   -1.0624 C   0  0
    2.3049    3.9969   -0.0585 N   0  0
    1.1014    3.2752   -0.0518 C   0  0
    1.1222    1.8881   -0.0845 C   0  0
   -0.0640    1.1800   -0.0774 C   0  0
   -1.2724    1.8513   -0.0431 C   0  0
   -1.2983    3.2330   -0.0051 C   0  0
   -0.1142    3.9482   -0.0120 C   0  0
   -0.1392    5.2986    0.0194 F   0  0
    1.9293    7.6705    7.0782 N   0  0
    1.6333   12.1199    9.5458 H   0  0
    2.9801   11.3302   10.4335 H   0  0
    1.4712   10.4177   10.0942 H   0  0
    1.9497   10.5327    7.6532 H   0  0
    4.5436   11.8983    8.5665 H   0  0
    3.1968   12.6880    7.6789 H   0  0
    4.1571   11.3936    6.8872 H   0  0
    2.8310    8.6428    9.0746 H   0  0
    4.3714    9.5480    9.2602 H   0  0
    6.6020    9.0583    5.3803 H   0  0
    3.3780    7.1150    2.5884 H   0  0
    4.2304    5.7015    3.2973 H   0  0
    3.1822    3.5184   -2.0265 H   0  0
    2.0826    1.3527   -0.1161 H   0  0
   -0.0472    0.0803   -0.0991 H   0  0
   -2.2152    1.2846   -0.0461 H   0  0
   -2.2610    3.7640    0.0306 H   0  0
    1.6118    8.0437    7.9842 H   0  0
    1.3201    7.0410    6.5364 H   0  0
  1  2  1  0
  2  3  1  0
  2  4  1  0
  4  5  1  0
  5 11  1  0
  5  6  1  0
  6  7  2  0
  6 29  1  0
  7  8  1  0
  7 13  1  0
  8  9  2  0
  8 10  1  0
 10 11  1  0
 11 12  2  0
 13 14  2  0
 13 15  1  0
 15 16  1  0
 16 17  1  0
 17 21  1  0
 17 18  2  0
 18 19  1  0
 19 20  2  0
 20 21  1  0
 21 22  1  0
 22 27  2  0
 22 23  1  0
 23 24  2  0
 24 25  1  0
 25 26  2  0
 26 27  1  0
 27 28  1  0
  1 30  1  0
  1 31  1  0
  1 32  1  0
  2 33  1  0
  3 34  1  0
  3 35  1  0
  3 36  1  0
  4 37  1  0
  4 38  1  0
 10 39  1  0
 15 40  1  0
 15 41  1  0
 20 42  1  0
 23 43  1  0
 24 44  1  0
 25 45  1  0
 26 46  1  0
 29 47  1  0
 29 48  1  0
M  END
> <Name>
ZINC10777316

> <reference>
BDB50021144

> <quality>
0.714

> <status>
decoy

$$$$
ZINC29596217
  SciTegic06061311253D

 59 61  0  0  1  0            999 V2000
    2.4554    1.6496   -1.2516 C   0  0
    1.0062    2.0143   -1.0569 C   0  0
   -0.0271    1.1581   -0.8890 C   0  0
   -1.1580    2.0074   -0.7586 C   0  0
   -0.7074    3.2312   -0.8478 N   0  0
    0.4897    3.2510   -1.0168 O   0  0
   -2.4831    1.6144   -0.5695 N   0  0
   -2.7934    0.3051   -0.4934 C   0  0
   -1.9206   -0.5315   -0.5893 O   0  0
   -4.2248   -0.1194   -0.2890 C   0  0
   -4.2986   -1.5858   -0.2407 N   0  0
   -3.9450   -2.1740   -1.5402 C   0  0
   -3.9565   -3.7002   -1.4264 C   0  0
   -5.2884   -4.1465   -0.9945 N   0  0
   -5.6420   -3.5583    0.3050 C   0  0
   -5.6305   -2.0321    0.1912 C   0  0
   -5.3622   -5.6129   -0.9462 C   0  0  2  0  0  0
   -4.9043   -6.1910   -2.2867 C   0  0
   -6.7832   -6.0357   -0.6759 C   0  0
   -7.7004   -5.2853   -0.9395 O   0  0
   -7.0485   -7.3082   -0.1144 C   0  0
   -8.2934   -7.8173    0.1818 C   0  0
   -8.0893   -9.1081    0.7207 C   0  0
   -6.7205   -9.3341    0.7309 C   0  0
   -6.1047   -8.2565    0.2258 N   0  0
   -6.0400  -10.5857    1.2222 C   0  0
   -9.1288  -10.0342    1.1817 C   0  0
   -9.5578   -9.9499    2.3133 O   0  0
   -9.6640  -11.0906    0.2497 C   0  0
   -9.6183   -7.1308   -0.0289 C   0  0
    2.9512    2.2171   -0.4502 H   0  0
    2.7063    2.1711   -2.1871 H   0  0
    2.6954    0.5761   -1.2570 H   0  0
    0.0016    0.0589   -0.8601 H   0  0
   -3.2244    2.3249   -0.4880 H   0  0
   -4.8407    0.2507   -1.1219 H   0  0
   -4.5994    0.2974    0.6575 H   0  0
   -2.9407   -1.8364   -1.8360 H   0  0
   -4.6771   -1.8576   -2.2978 H   0  0
   -3.7213   -4.1431   -2.4055 H   0  0
   -3.2060   -4.0199   -0.6885 H   0  0
   -6.6465   -3.8961    0.5998 H   0  0
   -4.9106   -3.8744    1.0634 H   0  0
   -5.8662   -1.5899    1.1704 H   0  0
   -6.3823   -1.7142   -0.5462 H   0  0
   -4.7095   -5.9867   -0.1436 H   0  0
   -3.8670   -5.8831   -2.4848 H   0  0
   -5.5566   -5.8180   -3.0900 H   0  0
   -4.9593   -7.2891   -2.2512 H   0  0
   -5.0866   -8.1521    0.1096 H   0  0
   -6.5324  -11.3740    0.6340 H   0  0
   -6.4309  -10.6862    2.2455 H   0  0
   -4.9419  -10.6013    1.1597 H   0  0
   -8.7785  -11.6584   -0.0718 H   0  0
  -10.0257  -10.5355   -0.6284 H   0  0
  -10.4396  -11.7320    0.6936 H   0  0
   -9.5803   -6.8717   -1.0973 H   0  0
   -9.4792   -6.1829    0.5116 H   0  0
  -10.5178   -7.6905    0.2672 H   0  0
  1  2  1  0
  2  6  1  0
  2  3  2  0
  3  4  1  0
  4  5  2  0
  4  7  1  0
  5  6  1  0
  7  8  1  0
  8  9  2  0
  8 10  1  0
 10 11  1  0
 11 16  1  0
 11 12  1  0
 12 13  1  0
 13 14  1  0
 14 15  1  0
 14 17  1  0
 15 16  1  0
 17 18  1  0
 17 19  1  0
 19 20  2  0
 19 21  1  0
 21 25  1  0
 21 22  2  0
 22 23  1  0
 22 30  1  0
 23 24  2  0
 23 27  1  0
 24 25  1  0
 24 26  1  0
 27 28  2  0
 27 29  1  0
  1 31  1  0
  1 32  1  0
  1 33  1  0
  3 34  1  0
  7 35  1  0
 10 36  1  0
 10 37  1  0
 12 38  1  0
 12 39  1  0
 13 40  1  0
 13 41  1  0
 15 42  1  0
 15 43  1  0
 16 44  1  0
 16 45  1  0
 17 46  1  0
 18 47  1  0
 18 48  1  0
 18 49  1  0
 25 50  1  0
 26 51  1  0
 26 52  1  0
 26 53  1  0
 29 54  1  0
 29 55  1  0
 29 56  1  0
 30 57  1  0
 30 58  1  0
 30 59  1  0
M  END
> <Name>
ZINC29596217

> <reference>
BDB50021144

> <quality>
0.711

> <status>
decoy

$$$$
ZINC16811192
  SciTegic06061311253D

 47 49  0  0  0  0            999 V2000
   -2.8318   -4.4297   -0.0004 C   0  0
   -3.2203   -5.7554    0.0024 C   0  0
   -4.5634   -6.0835    0.0131 C   0  0
   -5.5209   -5.0861    0.0275 C   0  0
   -5.1376   -3.7589    0.0309 C   0  0
   -3.7906   -3.4272    0.0198 C   0  0
   -3.4109   -2.1223    0.0232 O   0  0
   -2.0072   -1.8550    0.0113 C   0  0
   -1.7759   -0.3426    0.0172 C   0  0
    0.0021   -0.0041    0.0020 S   0  0
   -0.0218    1.7577    0.0117 C   0  0
   -1.1919    2.3852    0.0208 N   0  0
   -1.2589    3.7040    0.0331 C   0  0
   -0.0724    4.4454    0.0257 C   0  0
    1.1524    3.7430    0.0107 C   0  0
    1.1288    2.4157    0.0043 N   0  0
    2.3526    4.4241    0.0034 N   0  0
   -0.0994    5.8771    0.0327 C   0  0
   -0.1208    7.0129    0.0383 N   0  0
   -5.0557   -7.7753    0.0087 S   0  0
   -3.9682   -8.5160    0.5453 O   0  0
   -6.3596   -7.8203    0.5718 O   0  0
   -5.2075   -8.2370   -1.5743 N   0  0
   -6.4899   -8.1015   -2.2832 C   0  0
   -6.2287   -7.3723   -3.6109 C   0  0
   -5.1818   -8.0432   -4.3163 O   0  0
   -3.9241   -8.0423   -3.6366 C   0  0
   -4.0657   -8.8006   -2.3119 C   0  0
   -1.7632   -4.1692   -0.0186 H   0  0
   -2.4604   -6.5507   -0.0039 H   0  0
   -6.5888   -5.3497    0.0363 H   0  0
   -5.8998   -2.9658    0.0424 H   0  0
   -1.5415   -2.3001    0.9029 H   0  0
   -1.5575   -2.2904   -0.8933 H   0  0
   -2.2410    0.1031   -0.8744 H   0  0
   -2.2238    0.0945    0.9218 H   0  0
   -2.2341    4.2126    0.0489 H   0  0
    2.3524    5.4541    0.0090 H   0  0
    3.2434    3.9072   -0.0075 H   0  0
   -7.1918   -7.5150   -1.6721 H   0  0
   -6.9082   -9.0985   -2.4858 H   0  0
   -7.1446   -7.3788   -4.2201 H   0  0
   -5.9275   -6.3340   -3.4080 H   0  0
   -3.1674   -8.5370   -4.2632 H   0  0
   -3.6152   -7.0061   -3.4345 H   0  0
   -3.1471   -8.6811   -1.7188 H   0  0
   -4.2454   -9.8666   -2.5151 H   0  0
  1  6  2  0
  1  2  1  0
  2  3  2  0
  3  4  1  0
  3 20  1  0
  4  5  2  0
  5  6  1  0
  6  7  1  0
  7  8  1  0
  8  9  1  0
  9 10  1  0
 10 11  1  0
 11 16  2  0
 11 12  1  0
 12 13  2  0
 13 14  1  0
 14 15  2  0
 14 18  1  0
 15 16  1  0
 15 17  1  0
 18 19  3  0
 20 21  2  0
 20 22  2  0
 20 23  1  0
 23 28  1  0
 23 24  1  0
 24 25  1  0
 25 26  1  0
 26 27  1  0
 27 28  1  0
  1 29  1  0
  2 30  1  0
  4 31  1  0
  5 32  1  0
  8 33  1  0
  8 34  1  0
  9 35  1  0
  9 36  1  0
 13 37  1  0
 17 38  1  0
 17 39  1  0
 24 40  1  0
 24 41  1  0
 25 42  1  0
 25 43  1  0
 27 44  1  0
 27 45  1  0
 28 46  1  0
 28 47  1  0
M  END
> <Name>
ZINC16811192

> <reference>
BDB50021144

> <quality>
0.710

> <status>
decoy

$$$$
ZINC24950032
  SciTegic06061311253D

 53 54  0  0  1  0            999 V2000
    3.7912   -0.3952   -0.0358 C   0  0
    2.3597    0.0756   -0.0201 C   0  0
    1.2198   -0.6579   -0.0131 C   0  0
    0.0021   -0.0041    0.0020 C   0  0
   -0.0163    1.3513    0.0095 C   0  0
    1.7251    1.7443   -0.0050 S   0  0
   -1.3999    2.4421    0.0223 S   0  0
   -0.9506    3.6745   -0.5241 O   0  0
   -2.4926    1.7186   -0.5270 O   0  0
   -1.7765    2.7367    1.6078 N   0  0
   -2.7343    1.8834    2.3273 C   0  0
   -2.0825    1.4308    3.6435 C   0  0
   -1.6225    2.6111    4.3873 N   0  0
   -0.5810    3.3352    3.6464 C   0  0
   -1.1667    3.8622    2.3320 C   0  0
   -1.1519    2.2381    5.7279 C   0  0  2  0  0  0
    0.0000    1.2387    5.6044 C   0  0
   -2.2826    1.6083    6.5000 C   0  0
   -3.3726    1.4827    5.9844 O   0  0
   -2.0820    1.1848    7.7637 N   0  0
   -3.0932    0.6217    8.4542 C   0  0
   -4.1859    0.4957    7.9373 O   0  0
   -2.8926    0.1982    9.7179 N   0  0
   -3.9917   -0.4140   10.4684 C   0  0
   -3.5016   -0.8025   11.8648 C   0  0
   -3.1569    0.3771   12.5939 O   0  0
   -2.6844    0.1243   13.9186 C   0  0
    4.1817    0.1660    0.8259 H   0  0
    4.1660    0.1756   -0.8982 H   0  0
    4.0238   -1.4703   -0.0439 H   0  0
    1.2632   -1.7570   -0.0193 H   0  0
   -0.9380   -0.5752    0.0078 H   0  0
   -2.9791    1.0027    1.7153 H   0  0
   -3.6480    2.4555    2.5459 H   0  0
   -2.8188    0.8805    4.2478 H   0  0
   -1.2244    0.7784    3.4242 H   0  0
   -0.2200    4.1799    4.2514 H   0  0
    0.2556    2.6552    3.4279 H   0  0
   -0.3645    4.3028    1.7218 H   0  0
   -1.9324    4.6217    2.5486 H   0  0
   -0.8024    3.1369    6.2570 H   0  0
    0.8260    1.6975    5.0411 H   0  0
   -0.3486    0.3394    5.0756 H   0  0
    0.3529    0.9590    6.6080 H   0  0
   -1.1559    1.2915    8.2017 H   0  0
   -1.9665    0.3050   10.1560 H   0  0
   -4.3418   -1.3131    9.9402 H   0  0
   -4.8198    0.3045   10.5578 H   0  0
   -4.2993   -1.3417   12.3967 H   0  0
   -2.6168   -1.4501   11.7770 H   0  0
   -1.8034   -0.5294   13.8373 H   0  0
   -3.4749   -0.4221   14.4540 H   0  0
   -2.4312    1.0578   14.4425 H   0  0
  1  2  1  0
  2  6  1  0
  2  3  2  0
  3  4  1  0
  4  5  2  0
  5  6  1  0
  5  7  1  0
  7  8  2  0
  7  9  2  0
  7 10  1  0
 10 15  1  0
 10 11  1  0
 11 12  1  0
 12 13  1  0
 13 14  1  0
 13 16  1  0
 14 15  1  0
 16 17  1  0
 16 18  1  0
 18 19  2  0
 18 20  1  0
 20 21  1  0
 21 22  2  0
 21 23  1  0
 23 24  1  0
 24 25  1  0
 25 26  1  0
 26 27  1  0
  1 28  1  0
  1 29  1  0
  1 30  1  0
  3 31  1  0
  4 32  1  0
 11 33  1  0
 11 34  1  0
 12 35  1  0
 12 36  1  0
 14 37  1  0
 14 38  1  0
 15 39  1  0
 15 40  1  0
 16 41  1  0
 17 42  1  0
 17 43  1  0
 17 44  1  0
 20 45  1  0
 23 46  1  0
 24 47  1  0
 24 48  1  0
 25 49  1  0
 25 50  1  0
 27 51  1  0
 27 52  1  0
 27 53  1  0
M  END
> <Name>
ZINC24950032

> <reference>
BDB50021144

> <quality>
0.709

> <status>
decoy

$$$$
ZINC19305586
  SciTegic06061311253D

 53 54  0  0  1  0            999 V2000
   -1.1283    3.3178   -2.4987 C   0  0
   -1.7824    2.7435   -1.5197 C   0  0
   -1.0300    2.0146   -0.4363 C   0  0
   -1.4278    2.5790    0.9290 C   0  0
   -0.6754    1.8502    2.0124 C   0  0
    0.0058    2.5254    2.9047 C   0  0
   -0.0965    4.0282    2.9518 C   0  0
   -0.4540    4.4707    4.3721 C   0  0  1  0  0  0
   -0.3895    5.9967    4.4623 C   0  0
   -0.5427    6.4219    5.8999 C   0  0
   -1.7935    6.7356    6.3984 C   0  0
   -1.9341    7.1252    7.7171 C   0  0
   -0.8240    7.2012    8.5375 C   0  0
    0.4265    6.8880    8.0390 C   0  0
    0.5664    6.4928    6.7215 C   0  0
    2.1595    6.0861    6.0881 S   0  0
    3.0870    6.3244    7.1380 O   0  0
    2.0339    4.8200    5.4554 O   0  0
    2.5054    7.1798    4.8937 N   0  0
    2.6637    8.5985    5.2231 C   0  0
    2.8402    9.3499    4.0205 O   0  0
   -3.2733    7.4605    8.2509 N   0  0
   -4.2514    7.3932    7.5282 O   0  0
   -3.3972    7.8039    9.4130 O   0  0
   -1.8479    4.0062    4.7071 C   0  3
   -2.2851    2.6996    4.7307 C   0  0
   -3.6237    2.7167    5.0849 C   0  0
   -4.0258    4.1394    5.2909 C   0  0
   -3.0073    4.8836    5.0813 N   0  0
   -0.0299    3.2680   -2.5300 H   0  0
   -1.6775    3.8498   -3.2895 H   0  0
   -2.8808    2.7933   -1.4884 H   0  0
   -1.2766    0.9433   -0.4756 H   0  0
    0.0516    2.1477   -0.5862 H   0  0
   -2.5090    2.4457    1.0812 H   0  0
   -1.1812    3.6502    0.9691 H   0  0
   -0.6982    0.7512    2.0540 H   0  0
    0.6524    1.9955    3.6195 H   0  0
   -0.8785    4.3656    2.2557 H   0  0
    0.8680    4.4708    2.6623 H   0  0
    0.2601    4.0308    5.0839 H   0  0
   -1.2007    6.4352    3.8626 H   0  0
    0.5803    6.3462    4.0785 H   0  0
   -2.6768    6.6751    5.7456 H   0  0
   -0.9359    7.5109    9.5870 H   0  0
    1.3104    6.9532    8.6905 H   0  0
    2.6092    6.8626    3.9193 H   0  0
    3.5441    8.7300    5.8693 H   0  0
    1.7660    8.9553    5.7493 H   0  0
    2.0481    9.2334    3.4382 H   0  0
   -1.6817    1.8070    4.5089 H   0  0
   -4.2754    1.8374    5.1950 H   0  0
   -5.0293    4.4888    5.5752 H   0  0
  1  2  2  0
  2  3  1  0
  3  4  1  0
  4  5  1  0
  5  6  2  0
  6  7  1  0
  7  8  1  0
  8  9  1  0
  8 25  1  0
  9 10  1  0
 10 15  2  0
 10 11  1  0
 11 12  2  0
 12 13  1  0
 12 22  1  0
 13 14  2  0
 14 15  1  0
 15 16  1  0
 16 17  2  0
 16 18  2  0
 16 19  1  0
 19 20  1  0
 20 21  1  0
 22 23  2  0
 22 24  2  0
 25 29  1  0
 25 26  1  0
 26 27  2  0
 27 28  1  0
 28 29  2  0
  1 30  1  0
  1 31  1  0
  2 32  1  0
  3 33  1  0
  3 34  1  0
  4 35  1  0
  4 36  1  0
  5 37  1  0
  6 38  1  0
  7 39  1  0
  7 40  1  0
  8 41  1  0
  9 42  1  0
  9 43  1  0
 11 44  1  0
 13 45  1  0
 14 46  1  0
 19 47  1  0
 20 48  1  0
 20 49  1  0
 21 50  1  0
 26 51  1  0
 27 52  1  0
 28 53  1  0
M  CHG  1  25   1
M  END
> <Name>
ZINC19305586

> <reference>
BDB50020387

> <quality>
0.885

> <status>
decoy

$$$$
ZINC32091719
  SciTegic06061311253D

 50 51  0  0  1  0            999 V2000
    2.3051    2.5866   -4.7079 C   0  0
    2.6785    1.5808   -3.6497 C   0  0
    2.2194    1.7140   -2.3869 C   0  0
    2.5723    0.7944   -1.4370 N   0  0
    3.3635   -0.2472   -1.7522 C   0  0
    3.6610   -1.0551   -0.8936 O   0  0
    3.8306   -0.4072   -3.0043 N   0  0
    3.5102    0.4802   -3.9677 C   0  0
    3.9321    0.3359   -5.1009 O   0  0
    2.0791    0.9421   -0.0655 C   0  0  1  0  0  0
    1.1128    2.1014    0.0197 C   0  0
   -0.1087    1.6214    0.0385 C   0  0
   -0.0294    0.1136   -0.0330 C   0  0  2  0  0  0
    1.3257   -0.2233    0.3204 O   0  0
   -0.3397   -0.3650   -1.4527 C   0  0
   -0.3934   -1.7929   -1.4729 O   0  0
   -0.6989   -2.6400   -2.8075 P   0  0
   -1.8355   -2.0278   -3.5312 O   0  0
    0.6625   -2.6383   -3.7970 N   0  0
    1.8133   -3.2401   -3.1102 C   0  0
    2.5273   -4.2038   -4.0600 C   0  0
    3.7258   -4.8306   -3.3447 C   0  0
    4.4398   -5.7943   -4.2946 C   0  0
    5.6383   -6.4211   -3.5792 C   0  0
    6.3416   -7.3703   -4.5148 C   0  0
    5.9267   -7.5293   -5.6384 O   0  0
    7.4288   -8.0393   -4.0999 O   0  5
   -1.0703   -4.1549   -2.4083 O   0  5
    1.8385    1.9927   -5.5076 H   0  0
    3.2659    2.9532   -5.0984 H   0  0
    1.6558    3.3986   -4.3488 H   0  0
    1.5648    2.5577   -2.1230 H   0  0
    4.4352   -1.2107   -3.2275 H   0  0
    2.9544    1.0937    0.5832 H   0  0
    1.3867    3.1660    0.0592 H   0  0
   -1.0328    2.2153    0.0964 H   0  0
   -0.7561   -0.3643    0.6404 H   0  0
   -1.3098    0.0425   -1.7733 H   0  0
    0.4480   -0.0187   -2.1380 H   0  0
    0.6857   -2.2649   -4.7567 H   0  0
    2.5107   -2.4480   -2.8000 H   0  0
    1.4658   -3.7906   -2.2235 H   0  0
    1.8306   -4.9964   -4.3703 H   0  0
    2.8766   -3.6548   -4.9469 H   0  0
    4.4232   -4.0385   -3.0344 H   0  0
    3.3782   -5.3811   -2.4581 H   0  0
    3.7431   -6.5869   -4.6049 H   0  0
    4.7892   -5.2452   -5.1814 H   0  0
    5.2907   -6.9716   -2.6926 H   0  0
    6.3356   -5.6290   -3.2689 H   0  0
  1  2  1  0
  2  8  1  0
  2  3  2  0
  3  4  1  0
  4  5  1  0
  4 10  1  0
  5  6  2  0
  5  7  1  0
  7  8  1  0
  8  9  2  0
 10 14  1  0
 10 11  1  0
 11 12  2  0
 12 13  1  0
 13 14  1  0
 13 15  1  0
 15 16  1  0
 16 17  1  0
 17 18  2  0
 17 19  1  0
 17 28  1  0
 19 20  1  0
 20 21  1  0
 21 22  1  0
 22 23  1  0
 23 24  1  0
 24 25  1  0
 25 26  2  0
 25 27  1  0
  1 29  1  0
  1 30  1  0
  1 31  1  0
  3 32  1  0
  7 33  1  0
 10 34  1  0
 11 35  1  0
 12 36  1  0
 13 37  1  0
 15 38  1  0
 15 39  1  0
 19 40  1  0
 20 41  1  0
 20 42  1  0
 21 43  1  0
 21 44  1  0
 22 45  1  0
 22 46  1  0
 23 47  1  0
 23 48  1  0
 24 49  1  0
 24 50  1  0
M  CHG  2  27  -1  28  -1
M  END
> <Name>
ZINC32091719

> <reference>
BDB50020387

> <quality>
0.830

> <status>
decoy

$$$$
ZINC06350501
  SciTegic06061311253D

 57 58  0  0  1  0            999 V2000
   -7.8852    1.9678   -8.3485 C   0  0
   -6.5374    2.2548   -9.0132 C   0  0
   -5.4769    1.6196   -8.2514 O   0  0
   -4.2187    1.7765   -8.7063 C   0  0
   -4.0130    2.4262   -9.7119 O   0  0
   -3.0891    1.1584   -7.9823 C   0  0
   -1.7837    1.3191   -8.4511 C   0  0
   -0.7334    0.7396   -7.7699 C   0  0
   -0.9713    0.0005   -6.6245 C   0  0
   -2.2629   -0.1670   -6.1574 C   0  0
   -3.3219    0.4114   -6.8259 C   0  0
    0.3761   -0.7366   -5.7610 S   0  0
    1.4263   -0.8941   -6.7052 O   0  0
   -0.1603   -1.8300   -5.0287 O   0  0
    0.9047    0.3667   -4.6449 N   0  5
    0.0334    0.8294   -3.6502 N   0  0
    0.3779    0.7263   -2.3513 C   0  0
    1.4423    0.2330   -2.0435 O   0  0
   -0.5594    1.2240   -1.2813 C   0  0
    0.0672    0.9900    0.0947 C   0  0
   -2.1185    0.8373    1.1242 C   0  0  2  0  0  0
   -2.9617    1.3170    2.3079 C   0  0
   -3.1652    2.8309    2.2030 C   0  0
   -1.7985    3.5205    2.1672 C   0  0
   -0.9891    2.9769    0.9876 C   0  0  1  0  0  0
    0.3853    3.6487    0.9597 C   0  0
   -1.8956   -0.6723    1.2356 C   0  0
   -0.8076    1.5201    1.1609 N   0  3
   -7.8818    2.3664   -7.3233 H   0  0
   -8.0564    0.8816   -8.3183 H   0  0
   -8.6890    2.4488   -8.9252 H   0  0
   -6.5415    1.8556  -10.0382 H   0  0
   -6.3661    3.3410   -9.0434 H   0  0
   -1.5933    1.9064   -9.3615 H   0  0
    0.2955    0.8653   -8.1380 H   0  0
   -2.4457   -0.7627   -5.2509 H   0  0
   -4.3474    0.2844   -6.4488 H   0  0
   -0.8705    1.2484   -3.9116 H   0  0
   -1.5135    0.6803   -1.3461 H   0  0
   -0.7400    2.2998   -1.4232 H   0  0
    1.0435    1.4947    0.1419 H   0  0
    0.2146   -0.0891    0.2490 H   0  0
   -2.6389    1.0659    0.1824 H   0  0
   -3.9396    0.8136    2.2902 H   0  0
   -2.4431    1.0814    3.2489 H   0  0
   -3.7332    3.1877    3.0748 H   0  0
   -3.7182    3.0644    1.2813 H   0  0
   -1.9374    4.6051    2.0477 H   0  0
   -1.2598    3.3193    3.1049 H   0  0
   -1.5212    3.1836    0.0473 H   0  0
    0.9180    3.4355    1.8982 H   0  0
    0.2610    4.7359    0.8481 H   0  0
    0.9677    3.2585    0.1120 H   0  0
   -2.8666   -1.1891    1.2265 H   0  0
   -1.3696   -0.8981    2.1749 H   0  0
   -1.2896   -1.0178    0.3851 H   0  0
   -0.3659    1.3456    2.0749 H   0  0
  1  2  1  0
  2  3  1  0
  3  4  1  0
  4  5  2  0
  4  6  1  0
  6 11  2  0
  6  7  1  0
  7  8  2  0
  8  9  1  0
  9 10  2  0
  9 12  1  0
 10 11  1  0
 12 13  2  0
 12 14  2  0
 12 15  1  0
 15 16  1  0
 16 17  1  0
 17 18  2  0
 17 19  1  0
 19 20  1  0
 20 28  1  0
 21 22  1  0
 21 27  1  0
 21 28  1  0
 22 23  1  0
 23 24  1  0
 24 25  1  0
 25 26  1  0
 25 28  1  0
  1 29  1  0
  1 30  1  0
  1 31  1  0
  2 32  1  0
  2 33  1  0
  7 34  1  0
  8 35  1  0
 10 36  1  0
 11 37  1  0
 16 38  1  0
 19 39  1  0
 19 40  1  0
 20 41  1  0
 20 42  1  0
 21 43  1  0
 22 44  1  0
 22 45  1  0
 23 46  1  0
 23 47  1  0
 24 48  1  0
 24 49  1  0
 25 50  1  0
 26 51  1  0
 26 52  1  0
 26 53  1  0
 27 54  1  0
 27 55  1  0
 27 56  1  0
 28 57  1  0
M  CHG  2  15  -1  28   1
M  END
> <Name>
ZINC06350501

> <reference>
BDB50020387

> <quality>
0.775

> <status>
decoy

$$$$
ZINC15868899
  SciTegic06061311253D

 56 57  0  0  1  0            999 V2000
    5.1735   -3.2423   -0.8330 C   0  0
    3.7434   -3.1103   -0.3765 C   0  0
    2.9540   -4.2373   -0.2419 C   0  0
    1.6422   -4.1162    0.1763 C   0  0
    1.1194   -2.8681    0.4600 C   0  0
    1.9089   -1.7416    0.3263 C   0  0
    3.2197   -1.8622   -0.0966 C   0  0
    1.2428   -0.1510    0.6879 S   0  0
    2.3382    0.7541    0.7037 O   0  0
    0.3759   -0.3173    1.8015 O   0  0
    0.2886    0.2832   -0.5940 N   0  0
    0.8515    1.0735   -1.6916 C   0  0
    0.4982    2.5487   -1.4914 C   0  0
    1.1076    3.0256   -0.2901 O   0  0
    0.7505    4.3668    0.0500 C   0  0
   -1.1185   -0.1230   -0.6305 C   0  0
   -1.3397   -1.0919   -1.7937 C   0  0
   -3.1079   -1.4705   -1.9375 S   0  0
   -3.5650   -2.1269   -0.7630 O   0  0
   -3.8076   -0.3493   -2.4597 O   0  0
   -3.2019   -2.6188   -3.1271 N   0  0
   -3.3748   -2.2337   -4.5360 C   0  0
   -4.5472   -3.0203   -5.1201 C   0  0
   -4.3090   -4.7661   -3.4537 C   0  0
   -3.1207   -4.0509   -2.8020 C   0  0
   -0.3110   -2.7361    0.9155 C   0  0
   -4.3345   -4.4641   -4.8984 N   0  0
    5.7710   -2.7641   -0.0429 H   0  0
    5.2480   -2.6059   -1.7271 H   0  0
    5.4849   -4.2793   -1.0271 H   0  0
    3.3699   -5.2303   -0.4676 H   0  0
    1.0141   -5.0129    0.2834 H   0  0
    3.8457   -0.9649   -0.2103 H   0  0
    0.4349    0.7240   -2.6478 H   0  0
    1.9453    0.9574   -1.7039 H   0  0
    0.8676    3.1337   -2.3466 H   0  0
   -0.5937    2.6585   -1.4163 H   0  0
   -0.3441    4.4026    0.1526 H   0  0
    1.0422    5.0113   -0.7923 H   0  0
    1.2409    4.6924    0.9792 H   0  0
   -1.3815   -0.6199    0.3150 H   0  0
   -1.7540    0.7643   -0.7675 H   0  0
   -0.9871   -0.6303   -2.7278 H   0  0
   -0.7804   -2.0211   -1.6099 H   0  0
   -3.5864   -1.1562   -4.6004 H   0  0
   -2.4588   -2.4676   -5.0983 H   0  0
   -4.6204   -2.8231   -6.1998 H   0  0
   -5.4798   -2.7081   -4.6274 H   0  0
   -4.2081   -5.8518   -3.3085 H   0  0
   -5.2451   -4.4201   -2.9911 H   0  0
   -3.1630   -4.1860   -1.7111 H   0  0
   -2.1807   -4.4660   -3.1945 H   0  0
   -0.3871   -3.3755    1.8074 H   0  0
   -0.9082   -3.2109    0.1231 H   0  0
   -0.6215   -1.6994    1.1128 H   0  0
   -5.0977   -4.9936   -5.3435 H   0  0
  1  2  1  0
  2  7  2  0
  2  3  1  0
  3  4  2  0
  4  5  1  0
  5  6  2  0
  5 26  1  0
  6  7  1  0
  6  8  1  0
  8  9  2  0
  8 10  2  0
  8 11  1  0
 11 12  1  0
 11 16  1  0
 12 13  1  0
 13 14  1  0
 14 15  1  0
 16 17  1  0
 17 18  1  0
 18 19  2  0
 18 20  2  0
 18 21  1  0
 21 25  1  0
 21 22  1  0
 22 23  1  0
 23 27  1  0
 24 25  1  0
 24 27  1  0
  1 28  1  0
  1 29  1  0
  1 30  1  0
  3 31  1  0
  4 32  1  0
  7 33  1  0
 12 34  1  0
 12 35  1  0
 13 36  1  0
 13 37  1  0
 15 38  1  0
 15 39  1  0
 15 40  1  0
 16 41  1  0
 16 42  1  0
 17 43  1  0
 17 44  1  0
 22 45  1  0
 22 46  1  0
 23 47  1  0
 23 48  1  0
 24 49  1  0
 24 50  1  0
 25 51  1  0
 25 52  1  0
 26 53  1  0
 26 54  1  0
 26 55  1  0
 27 56  1  0
M  END
> <Name>
ZINC15868899

> <reference>
BDB50020387

> <quality>
0.770

> <status>
decoy

$$$$
ZINC20463105
  SciTegic06061311253D

 51 51  0  0  1  0            999 V2000
    9.2221    8.4883    7.8882 C   0  0
    9.2531    7.0904    7.2670 C   0  0
    8.3958    7.0764    5.9998 C   0  0
    8.4268    5.6785    5.3786 C   0  0
    7.5695    5.6644    4.1114 C   0  0
    7.6004    4.2665    3.4902 C   0  0
    6.7796    4.2531    2.2769 N   0  0
    5.4690    3.9476    2.3712 C   0  0
    4.9644    3.6854    3.4468 O   0  0
    4.6661    3.9345    1.1351 C   0  0
    3.3191    3.6252    1.1532 C   0  0
    2.6483    3.4665   -0.0056 N   0  0
    1.1982    3.2589    0.0100 C   0  0  1  0  0  0
    0.6028    3.7184   -1.3224 C   0  0
    0.7937    5.2291   -1.4723 C   0  0
    0.0878    5.7740   -3.0519 S   0  0
    0.8399    5.1887   -4.1061 O   0  0
   -1.3179    5.5702   -3.0102 O   0  0
    0.4095    7.5592   -3.0401 C   0  0
    0.9025    1.7953    0.2141 C   0  0
    1.8099    1.0067    0.3342 O   0  0
   -0.3690    1.3679    0.2625 O   0  5
    5.3613    4.2717   -0.1202 C   0  0
    4.7643    4.2873   -1.1802 O   0  0
    6.6771    4.5630   -0.0618 N   0  0
    7.3468    4.5500    1.0993 C   0  0
    9.0154    4.9325    1.0768 S   0  0
    8.1859    8.7539    8.1445 H   0  0
    9.6202    9.2192    7.1690 H   0  0
    9.8383    8.4991    8.7994 H   0  0
   10.2896    6.8258    7.0108 H   0  0
    8.8550    6.3594    7.9862 H   0  0
    7.3590    7.3406    6.2554 H   0  0
    8.7931    7.8061    5.2789 H   0  0
    9.4633    5.4139    5.1224 H   0  0
    8.0288    4.9475    6.0978 H   0  0
    6.5327    5.9286    4.3670 H   0  0
    7.9668    6.3940    3.3904 H   0  0
    7.2023    3.5356    4.2094 H   0  0
    8.6369    4.0018    3.2340 H   0  0
    2.7944    3.5085    2.1129 H   0  0
    3.1554    3.4912   -0.9018 H   0  0
    0.7533    3.8409    0.8306 H   0  0
    1.1115    3.2012   -2.1493 H   0  0
   -0.4710    3.4811   -1.3467 H   0  0
    0.2849    5.7470   -0.6459 H   0  0
    1.8671    5.4683   -1.4494 H   0  0
    1.4833    7.7978   -3.0364 H   0  0
   -0.1141    8.0803   -2.2251 H   0  0
    0.0026    7.9591   -3.9806 H   0  0
    7.1788    4.8009   -0.9294 H   0  0
  1  2  1  0
  2  3  1  0
  3  4  1  0
  4  5  1  0
  5  6  1  0
  6  7  1  0
  7 26  1  0
  7  8  1  0
  8  9  2  0
  8 10  1  0
 10 11  2  0
 10 23  1  0
 11 12  1  0
 12 13  1  0
 13 14  1  0
 13 20  1  0
 14 15  1  0
 15 16  1  0
 16 17  2  0
 16 18  2  0
 16 19  1  0
 20 21  2  0
 20 22  1  0
 23 24  2  0
 23 25  1  0
 25 26  1  0
 26 27  2  0
  1 28  1  0
  1 29  1  0
  1 30  1  0
  2 31  1  0
  2 32  1  0
  3 33  1  0
  3 34  1  0
  4 35  1  0
  4 36  1  0
  5 37  1  0
  5 38  1  0
  6 39  1  0
  6 40  1  0
 11 41  1  0
 12 42  1  0
 13 43  1  0
 14 44  1  0
 14 45  1  0
 15 46  1  0
 15 47  1  0
 19 48  1  0
 19 49  1  0
 19 50  1  0
 25 51  1  0
M  CHG  1  22  -1
M  END
> <Name>
ZINC20463105

> <reference>
BDB50020387

> <quality>
0.749

> <status>
decoy

$$$$
ZINC04583951
  SciTegic06061311253D

 59 61  0  0  0  0            999 V2000
    4.4589   -9.2187    3.9158 C   0  0
    3.3526   -8.6909    3.1812 O   0  0
    3.3756   -9.0079    1.7880 C   0  0
    2.1511   -8.3954    1.1052 C   0  0
    2.2348   -6.9343    1.1716 N   0  0
    1.2589   -6.1781    0.6310 C   0  0
    0.3114   -6.7072    0.0895 O   0  0
    1.3450   -4.6751    0.6993 C   0  0
    0.2013   -4.1030    0.0616 O   0  0
    0.1235   -2.7446    0.0355 C   0  0
    1.0953   -1.9900    0.5937 C   0  0
    1.0249   -0.6518    0.5711 O   0  0
    0.0021   -0.0041    0.0020 C   0  0
   -1.0137   -0.6784   -0.5740 C   0  0
   -0.9821   -2.0953   -0.5802 C   0  0
   -1.8819   -2.7411   -1.0958 O   0  0
   -0.0184    1.5028    0.0103 C   0  0
   -2.1291    1.6109    1.1927 C   0  0
   -2.7903    2.0511    2.5010 C   0  0
   -1.2021    3.8676    2.6925 C   0  0
   -0.5409    3.4274    1.3842 C   0  0
   -3.3128    3.9757    3.8749 C   0  0
   -4.6953    3.3788    3.9329 C   0  0
   -5.7599    4.0434    3.3533 C   0  0
   -7.0273    3.4936    3.4023 C   0  0
   -7.2318    2.2840    4.0395 C   0  0
   -6.1682    1.6222    4.6241 C   0  0
   -4.8999    2.1695    4.5705 C   0  0
   -0.6948    1.9642    1.2414 N   0  0
   -2.6364    3.5143    2.6438 N   0  0
    5.3784   -8.8202    3.4623 H   0  0
    4.4521  -10.3110    3.7862 H   0  0
    4.4011   -8.9513    4.9812 H   0  0
    3.3583  -10.1002    1.6590 H   0  0
    4.2905   -8.5995    1.3339 H   0  0
    2.1210   -8.7130    0.0525 H   0  0
    1.2376   -8.7332    1.6164 H   0  0
    3.0395   -6.4849    1.6314 H   0  0
    1.3748   -4.3569    1.7518 H   0  0
    2.2575   -4.3354    0.1875 H   0  0
    1.9555   -2.4803    1.0729 H   0  0
   -1.8544   -0.1368   -1.0322 H   0  0
    1.0128    1.8853   -0.0082 H   0  0
   -0.5668    1.8695   -0.8699 H   0  0
   -2.6062    2.1263    0.3461 H   0  0
   -2.2361    0.5226    1.0739 H   0  0
   -3.8596    1.7941    2.4780 H   0  0
   -2.3044    1.5458    3.3487 H   0  0
   -1.0953    4.9558    2.8124 H   0  0
   -0.7246    3.3515    3.5384 H   0  0
   -1.0277    3.9329    0.5372 H   0  0
    0.5285    3.6842    1.4062 H   0  0
   -3.3864    5.0732    3.8638 H   0  0
   -2.7350    3.6533    4.7536 H   0  0
   -5.5985    5.0097    2.8531 H   0  0
   -7.8731    4.0186    2.9343 H   0  0
   -8.2409    1.8481    4.0814 H   0  0
   -6.3311    0.6601    5.1319 H   0  0
   -4.0535    1.6427    5.0352 H   0  0
  1  2  1  0
  2  3  1  0
  3  4  1  0
  4  5  1  0
  5  6  1  0
  6  7  2  0
  6  8  1  0
  8  9  1  0
  9 10  1  0
 10 15  1  0
 10 11  2  0
 11 12  1  0
 12 13  1  0
 13 14  2  0
 13 17  1  0
 14 15  1  0
 15 16  2  0
 17 29  1  0
 18 19  1  0
 18 29  1  0
 19 30  1  0
 20 21  1  0
 20 30  1  0
 21 29  1  0
 22 23  1  0
 22 30  1  0
 23 28  2  0
 23 24  1  0
 24 25  2  0
 25 26  1  0
 26 27  2  0
 27 28  1  0
  1 31  1  0
  1 32  1  0
  1 33  1  0
  3 34  1  0
  3 35  1  0
  4 36  1  0
  4 37  1  0
  5 38  1  0
  8 39  1  0
  8 40  1  0
 11 41  1  0
 14 42  1  0
 17 43  1  0
 17 44  1  0
 18 45  1  0
 18 46  1  0
 19 47  1  0
 19 48  1  0
 20 49  1  0
 20 50  1  0
 21 51  1  0
 21 52  1  0
 22 53  1  0
 22 54  1  0
 24 55  1  0
 25 56  1  0
 26 57  1  0
 27 58  1  0
 28 59  1  0
M  END
> <Name>
ZINC04583951

> <reference>
BDB50020387

> <quality>
0.743

> <status>
decoy

$$$$
ZINC18437221
  SciTegic06061311253D

 40 40  0  0  1  0            999 V2000
   -2.7579    2.3244   -2.2527 C   0  0
   -1.7986    3.1831   -1.5537 N   0  0
   -1.1868    4.3171   -2.2509 C   0  0
    0.0187    3.8424   -3.0205 C   0  0
    0.3345    2.6766   -2.9898 O   0  0
    0.7417    4.7148   -3.7402 O   0  0
    1.8895    4.1873   -4.4561 C   0  0
    2.5732    5.3042   -5.2018 C   0  0
    2.1363    6.4332   -5.1364 O   0  0
    3.6704    5.0481   -5.9415 N   0  0
    4.2818    6.0470   -6.6084 C   0  0
    3.8438    7.1788   -6.5427 O   0  0
    5.3790    5.7908   -7.3480 N   0  0
    6.0436    6.8766   -8.0729 C   0  0
    7.2531    6.3207   -8.8273 C   0  0  1  0  0  0
    6.8281    5.3453   -9.7357 F   0  0
    7.8878    7.3576   -9.5196 F   0  0
    8.1492    5.7510   -7.9165 F   0  0
   -1.4058    2.8719    0.0247 S   0  0
   -2.4928    2.1426    0.5776 O   0  0
   -0.9507    4.0985    0.5794 O   0  0
   -0.0221    1.7810    0.0118 C   0  0
    1.3000    2.0794    0.0008 C   0  0
    2.2199    1.0478   -0.0135 C   0  0
    1.7727   -0.2318   -0.0161 C   0  0
    0.0021   -0.0041    0.0020 S   0  0
   -2.2192    1.9660   -3.1423 H   0  0
   -3.5426    3.0089   -2.6073 H   0  0
   -3.1591    1.5021   -1.6421 H   0  0
   -0.8771    5.0761   -1.5174 H   0  0
   -1.9162    4.7563   -2.9474 H   0  0
    1.5565    3.4203   -5.1708 H   0  0
    2.5945    3.7398   -3.7400 H   0  0
    4.0416    4.0889   -5.9971 H   0  0
    5.7502    4.8316   -7.4036 H   0  0
    6.3784    7.6441   -7.3596 H   0  0
    5.3392    7.3242   -8.7895 H   0  0
    1.6359    3.1269    0.0032 H   0  0
    3.2988    1.2621   -0.0226 H   0  0
    2.3507   -1.1676   -0.0266 H   0  0
  1  2  1  0
  2  3  1  0
  2 19  1  0
  3  4  1  0
  4  5  2  0
  4  6  1  0
  6  7  1  0
  7  8  1  0
  8  9  2  0
  8 10  1  0
 10 11  1  0
 11 12  2  0
 11 13  1  0
 13 14  1  0
 14 15  1  0
 15 16  1  0
 15 17  1  0
 15 18  1  0
 19 20  2  0
 19 21  2  0
 19 22  1  0
 22 26  1  0
 22 23  2  0
 23 24  1  0
 24 25  2  0
 25 26  1  0
  1 27  1  0
  1 28  1  0
  1 29  1  0
  3 30  1  0
  3 31  1  0
  7 32  1  0
  7 33  1  0
 10 34  1  0
 13 35  1  0
 14 36  1  0
 14 37  1  0
 23 38  1  0
 24 39  1  0
 25 40  1  0
M  END
> <Name>
ZINC18437221

> <reference>
BDB50020387

> <quality>
0.739

> <status>
decoy

$$$$
ZINC27469581
  SciTegic06061311253D

 56 57  0  0  1  0            999 V2000
    7.1329    0.0250   -3.0087 C   0  0
    6.0289    0.9153   -3.5828 C   0  0
    4.7217    0.3226   -3.2896 N   0  0
    4.1156   -0.6186   -4.2346 C   0  0
    3.2558    0.1503   -5.2397 C   0  0
    4.0688    0.6470   -2.1369 C   0  0
    4.4722    1.4727   -1.1847 N   0  0
    3.7894    1.7362   -0.1020 C   0  0
    4.1824    2.4994    0.7587 O   0  0
    2.4567    1.0021   -0.0137 C   0  5
    2.5245    0.0679   -1.5941 S   0  0
    1.2804    1.9802    0.0072 C   0  0
   -0.0143    1.2088    0.0067 C   0  0
    0.0023   -0.0038   -0.0089 O   0  0
   -1.1906    1.8666    0.0178 N   0  0
   -2.3913    1.1550   -0.0860 C   0  0
   -3.4685    1.7057   -0.7703 C   0  0
   -4.6547    1.0050   -0.8798 C   0  0
   -4.7811   -0.2418   -0.3013 C   0  0
   -3.7070   -0.8012    0.3926 C   0  0
   -2.5080   -0.0962    0.4985 C   0  0
   -3.8398   -2.1365    1.0137 C   0  0
   -2.9032   -2.6216    1.6178 O   0  0
   -4.9992   -2.8157    0.9099 N   0  0
   -5.1308   -4.1386    1.5253 C   0  0  1  0  0  0
   -5.5247   -3.9805    2.9953 C   0  0
   -6.2095   -4.9376    0.7913 C   0  0
   -7.4783   -4.3067    0.9764 O   0  0
   -8.5609   -4.9769    0.3276 C   0  0
    7.0737   -0.9743   -3.4646 H   0  0
    7.0063   -0.0615   -1.9194 H   0  0
    8.1148    0.4695   -3.2285 H   0  0
    6.0887    1.9143   -3.1262 H   0  0
    6.1554    1.0018   -4.6721 H   0  0
    4.9080   -1.1617   -4.7706 H   0  0
    3.4858   -1.3352   -3.6871 H   0  0
    3.8843    0.8667   -5.7890 H   0  0
    2.4628    0.6939   -4.7052 H   0  0
    2.8004   -0.5559   -5.9496 H   0  0
    1.3225    2.6251   -0.8829 H   0  0
    1.3360    2.6015    0.9132 H   0  0
   -1.2059    2.8930    0.1027 H   0  0
   -3.3766    2.7025   -1.2262 H   0  0
   -5.5009    1.4424   -1.4298 H   0  0
   -5.7283   -0.7945   -0.3871 H   0  0
   -1.6580   -0.5319    1.0441 H   0  0
   -5.7928   -2.4047    0.3979 H   0  0
   -4.1707   -4.6712    1.4583 H   0  0
   -6.4848   -3.4480    3.0634 H   0  0
   -4.7495   -3.4064    3.5240 H   0  0
   -5.6237   -4.9735    3.4580 H   0  0
   -5.9720   -4.9745   -0.2821 H   0  0
   -6.2473   -5.9606    1.1938 H   0  0
   -8.5988   -6.0035    0.7210 H   0  0
   -8.3259   -5.0242   -0.7460 H   0  0
   -9.5163   -4.4584    0.4960 H   0  0
  1  2  1  0
  2  3  1  0
  3  4  1  0
  3  6  1  0
  4  5  1  0
  6 11  1  0
  6  7  2  0
  7  8  1  0
  8  9  2  0
  8 10  1  0
 10 11  1  0
 10 12  1  0
 12 13  1  0
 13 14  2  0
 13 15  1  0
 15 16  1  0
 16 21  2  0
 16 17  1  0
 17 18  2  0
 18 19  1  0
 19 20  2  0
 20 21  1  0
 20 22  1  0
 22 23  2  0
 22 24  1  0
 24 25  1  0
 25 26  1  0
 25 27  1  0
 27 28  1  0
 28 29  1  0
  1 30  1  0
  1 31  1  0
  1 32  1  0
  2 33  1  0
  2 34  1  0
  4 35  1  0
  4 36  1  0
  5 37  1  0
  5 38  1  0
  5 39  1  0
 12 40  1  0
 12 41  1  0
 15 42  1  0
 17 43  1  0
 18 44  1  0
 19 45  1  0
 21 46  1  0
 24 47  1  0
 25 48  1  0
 26 49  1  0
 26 50  1  0
 26 51  1  0
 27 52  1  0
 27 53  1  0
 29 54  1  0
 29 55  1  0
 29 56  1  0
M  CHG  1  10  -1
M  END
> <Name>
ZINC27469581

> <reference>
BDB50020387

> <quality>
0.731

> <status>
decoy

$$$$
ZINC30577008
  SciTegic06061311253D

 60 62  0  0  0  0            999 V2000
    3.2192   -2.9285    2.8029 C   0  0
    3.3696   -1.9096    3.9343 C   0  0
    3.7859   -0.5577    3.3512 C   0  0
    3.9363    0.4612    4.4826 C   0  0
    4.3349    1.7556    3.9243 N   0  0
    3.5109    2.7380    3.5104 C   0  0
    4.2156    3.7512    3.0752 N   0  0
    5.5180    3.4750    3.1804 C   0  0
    5.6261    2.1992    3.7195 C   0  0
    6.9085    1.6522    3.9402 C   0  0
    7.0292    0.5355    4.4113 O   0  0
    7.9990    2.3806    3.6228 N   0  0
    7.8798    3.6140    3.1018 C   0  0
    8.8848    4.2415    2.8283 O   0  0
    6.6757    4.1724    2.8756 N   0  0
    6.5896    5.5196    2.3067 C   0  0
    6.5710    6.5504    3.4372 C   0  0
    6.4811    7.9575    2.8430 C   0  0
    6.4625    8.9882    3.9735 C   0  0
    2.0054    2.6812    3.5488 C   0  0
    1.4833    2.0996    2.2335 C   0  0
   -0.0221    2.0428    2.2719 C   0  0
   -0.6187    2.4294    3.2546 O   0  0
   -0.7056    1.5623    1.2143 N   0  0
   -2.1791    1.4929    1.2155 C   0  0
   -2.7009    2.3759    0.0803 C   0  0
   -1.9647    2.1232   -1.1508 N   0  0
   -0.7449    1.5865   -1.2070 C   0  0
   -0.2010    1.4983   -2.2874 O   0  0
   -0.0127    1.0858    0.0080 C   0  0
    4.1786   -3.0371    2.2759 H   0  0
    2.4505   -2.5825    2.0962 H   0  0
    2.9199   -3.9007    3.2215 H   0  0
    2.4097   -1.8014    4.4605 H   0  0
    4.1382   -2.2556    4.6410 H   0  0
    4.7460   -0.6651    2.8252 H   0  0
    3.0178   -0.2095    2.6450 H   0  0
    2.9764    0.5694    5.0088 H   0  0
    4.7049    0.1152    5.1893 H   0  0
    8.9368    1.9857    3.7821 H   0  0
    7.4608    5.7011    1.6601 H   0  0
    5.6676    5.6102    1.7137 H   0  0
    5.6998    6.3698    4.0840 H   0  0
    7.4929    6.4620    4.0307 H   0  0
    7.3523    8.1390    2.1964 H   0  0
    5.5591    8.0481    2.2500 H   0  0
    7.3845    8.8998    4.5669 H   0  0
    5.5917    8.8081    4.6210 H   0  0
    6.3979   10.0001    3.5470 H   0  0
    1.6836    2.0427    4.3847 H   0  0
    1.6025    3.6955    3.6859 H   0  0
    1.8844    1.0847    2.0953 H   0  0
    1.8044    2.7379    1.3971 H   0  0
   -2.5671    1.8607    2.1769 H   0  0
   -2.5008    0.4537    1.0523 H   0  0
   -3.7674    2.1634   -0.0850 H   0  0
   -2.5875    3.4338    0.3595 H   0  0
   -2.4178    2.3767   -2.0404 H   0  0
    1.0181    1.4697   -0.0002 H   0  0
    0.0014   -0.0141    0.0007 H   0  0
  1  2  1  0
  2  3  1  0
  3  4  1  0
  4  5  1  0
  5  9  1  0
  5  6  1  0
  6  7  2  0
  6 20  1  0
  7  8  1  0
  8 15  1  0
  8  9  2  0
  9 10  1  0
 10 11  2  0
 10 12  1  0
 12 13  1  0
 13 14  2  0
 13 15  1  0
 15 16  1  0
 16 17  1  0
 17 18  1  0
 18 19  1  0
 20 21  1  0
 21 22  1  0
 22 23  2  0
 22 24  1  0
 24 30  1  0
 24 25  1  0
 25 26  1  0
 26 27  1  0
 27 28  1  0
 28 29  2  0
 28 30  1  0
  1 31  1  0
  1 32  1  0
  1 33  1  0
  2 34  1  0
  2 35  1  0
  3 36  1  0
  3 37  1  0
  4 38  1  0
  4 39  1  0
 12 40  1  0
 16 41  1  0
 16 42  1  0
 17 43  1  0
 17 44  1  0
 18 45  1  0
 18 46  1  0
 19 47  1  0
 19 48  1  0
 19 49  1  0
 20 50  1  0
 20 51  1  0
 21 52  1  0
 21 53  1  0
 25 54  1  0
 25 55  1  0
 26 56  1  0
 26 57  1  0
 27 58  1  0
 30 59  1  0
 30 60  1  0
M  END
> <Name>
ZINC30577008

> <reference>
BDB50020387

> <quality>
0.729

> <status>
decoy

$$$$
ZINC20724073
  SciTegic06061311253D

 66 67  0  0  1  0            999 V2000
   -5.8485    2.7087    8.0355 C   0  0
   -4.7161    2.4699    7.0347 C   0  0
   -5.3077    2.0817    5.6782 C   0  0
   -4.1753    1.8429    4.6774 C   0  0
   -4.7418    1.4711    3.3785 N   0  0
   -5.0900    0.0749    3.1038 C   0  0
   -3.8406   -0.6824    2.6495 C   0  0
   -4.9886    2.6292    2.2208 S   0  0
   -5.2840    3.8362    2.9102 O   0  0
   -5.8721    2.0635    1.2623 O   0  0
   -3.5425    2.8665    1.4495 N   0  0
   -3.1467    2.0123    0.3216 C   0  0
   -1.7613    1.4253    0.6100 C   0  0
   -0.7825    2.5626    0.9110 C   0  0  1  0  0  0
   -1.2512    3.3265    2.1515 C   0  0
   -2.6307    3.9350    1.8805 C   0  0
    0.5892    1.9911    1.1618 C   0  0
    0.7665    0.7927    1.1054 O   0  0
    1.6202    2.8123    1.4433 N   0  0
    2.9550    2.2573    1.6812 C   0  0
    3.9350    3.3944    1.9767 C   0  0
    5.3289    2.8147    2.2251 C   0  0
    6.2699    3.9066    2.5088 N   0  0
    6.4588    4.7598    1.3266 C   0  0
    7.3973    5.9157    1.6829 C   0  0
    8.6328    5.3866    2.1717 O   0  0
    8.4859    4.5513    3.3232 C   0  0
    7.5584    3.3816    2.9836 C   0  0
   -6.4425    1.7893    8.1449 H   0  0
   -6.4950    3.5211    7.6722 H   0  0
   -5.4238    2.9879    9.0111 H   0  0
   -4.1229    3.3898    6.9257 H   0  0
   -4.0695    1.6575    7.3979 H   0  0
   -5.9007    1.1616    5.7864 H   0  0
   -5.9538    2.8935    5.3128 H   0  0
   -3.5821    2.7628    4.5683 H   0  0
   -3.5287    1.0305    5.0406 H   0  0
   -5.4882   -0.3905    4.0175 H   0  0
   -5.8509    0.0348    2.3104 H   0  0
   -3.0790   -0.6443    3.4423 H   0  0
   -3.4413   -0.2182    1.7357 H   0  0
   -4.1014   -1.7309    2.4431 H   0  0
   -3.8747    1.1961    0.2040 H   0  0
   -3.1073    2.6116   -0.6000 H   0  0
   -1.4101    0.8623   -0.2673 H   0  0
   -1.8208    0.7534    1.4789 H   0  0
   -0.7433    3.2486    0.0520 H   0  0
   -0.5355    4.1295    2.3817 H   0  0
   -1.3165    2.6358    3.0051 H   0  0
   -3.0146    4.3997    2.8006 H   0  0
   -2.5491    4.6924    1.0870 H   0  0
    1.4696    3.8301    1.4912 H   0  0
    2.9194    1.5720    2.5409 H   0  0
    3.2896    1.7086    0.7885 H   0  0
    3.9714    4.0799    1.1172 H   0  0
    3.6026    3.9436    2.8700 H   0  0
    5.6635    2.2660    1.3324 H   0  0
    5.2933    2.1294    3.0848 H   0  0
    5.4874    5.1627    1.0040 H   0  0
    6.9004    4.1667    0.5122 H   0  0
    7.5879    6.5238    0.7863 H   0  0
    6.9332    6.5407    2.4601 H   0  0
    9.4704    4.1632    3.6236 H   0  0
    8.0524    5.1349    4.1488 H   0  0
    7.3966    2.7690    3.8828 H   0  0
    8.0181    2.7661    2.1963 H   0  0
  1  2  1  0
  2  3  1  0
  3  4  1  0
  4  5  1  0
  5  6  1  0
  5  8  1  0
  6  7  1  0
  8  9  2  0
  8 10  2  0
  8 11  1  0
 11 16  1  0
 11 12  1  0
 12 13  1  0
 13 14  1  0
 14 15  1  0
 14 17  1  0
 15 16  1  0
 17 18  2  0
 17 19  1  0
 19 20  1  0
 20 21  1  0
 21 22  1  0
 22 23  1  0
 23 28  1  0
 23 24  1  0
 24 25  1  0
 25 26  1  0
 26 27  1  0
 27 28  1  0
  1 29  1  0
  1 30  1  0
  1 31  1  0
  2 32  1  0
  2 33  1  0
  3 34  1  0
  3 35  1  0
  4 36  1  0
  4 37  1  0
  6 38  1  0
  6 39  1  0
  7 40  1  0
  7 41  1  0
  7 42  1  0
 12 43  1  0
 12 44  1  0
 13 45  1  0
 13 46  1  0
 14 47  1  0
 15 48  1  0
 15 49  1  0
 16 50  1  0
 16 51  1  0
 19 52  1  0
 20 53  1  0
 20 54  1  0
 21 55  1  0
 21 56  1  0
 22 57  1  0
 22 58  1  0
 24 59  1  0
 24 60  1  0
 25 61  1  0
 25 62  1  0
 27 63  1  0
 27 64  1  0
 28 65  1  0
 28 66  1  0
M  END
> <Name>
ZINC20724073

> <reference>
BDB50020387

> <quality>
0.729

> <status>
decoy

$$$$
ZINC21046893
  SciTegic06061311253D

 58 60  0  0  0  0            999 V2000
   -5.5522    7.0578   -2.6400 C   0  0
   -5.2675    6.4908   -1.3596 O   0  0
   -5.3280    5.1370   -1.2571 C   0  0
   -5.6602    4.3703   -2.3649 C   0  0
   -5.7159    2.9943   -2.2594 C   0  0
   -5.4511    2.3812   -1.0485 C   0  0
   -5.1254    3.1431    0.0581 C   0  0
   -5.0633    4.5196   -0.0435 C   0  0
   -4.8385    2.4718    1.3764 C   0  0
   -5.3636    3.2953    2.4683 N   0  3
   -6.6830    3.1994    2.8252 C   0  0
   -7.2766    4.2076    3.4272 N   0  0
   -6.5530    5.3027    3.7970 C   0  0
   -5.4336    5.1552    4.6247 C   0  0
   -4.7064    6.2499    4.9900 C   0  0
   -5.0860    7.5224    4.5461 C   0  0
   -6.2089    7.6705    3.7230 C   0  0
   -6.9329    6.5751    3.3535 C   0  0
   -4.3043    8.7045    4.9445 C   0  0
   -4.6336    9.8091    4.5589 O   0  0
   -3.2233    8.5619    5.7370 O   0  5
   -7.3843    2.0537    2.5552 N   0  0
   -6.7474    0.7332    2.6736 C   0  0
   -7.6440   -0.1576    3.5481 C   0  0
   -9.0033   -0.1720    2.9914 N   0  0
   -9.6064    1.1671    3.0235 C   0  0
   -8.7921    2.1120    2.1334 C   0  0
   -9.8491   -1.1472    3.6925 C   0  0
   -9.3246   -2.5601    3.4284 C   0  0
  -10.1721   -3.5373    4.1309 C   0  0
  -10.8261   -4.2915    4.6731 N   0  0
   -6.5609    6.7142   -2.9130 H   0  0
   -4.8392    6.6046   -3.3444 H   0  0
   -5.4833    8.1556   -2.6440 H   0  0
   -5.8790    4.8580   -3.3263 H   0  0
   -5.9711    2.3856   -3.1394 H   0  0
   -5.4997    1.2854   -0.9657 H   0  0
   -4.8042    5.1254    0.8373 H   0  0
   -3.7520    2.3512    1.4989 H   0  0
   -5.3218    1.4839    1.3978 H   0  0
   -4.7410    3.9464    2.9677 H   0  0
   -8.2878    4.1697    3.6191 H   0  0
   -5.1405    4.1565    4.9805 H   0  0
   -3.8218    6.1330    5.6333 H   0  0
   -6.5072    8.6702    3.3743 H   0  0
   -7.8153    6.6915    2.7071 H   0  0
   -5.7596    0.8387    3.1460 H   0  0
   -6.6411    0.2828    1.6757 H   0  0
   -7.2426   -1.1816    3.5620 H   0  0
   -7.6719    0.2411    4.5729 H   0  0
  -10.6401    1.1132    2.6514 H   0  0
   -9.6066    1.5461    4.0561 H   0  0
   -9.1690    3.1394    2.2452 H   0  0
   -8.8777    1.7940    1.0838 H   0  0
   -9.8249   -0.9438    4.7733 H   0  0
  -10.8835   -1.0667    3.3272 H   0  0
   -9.3489   -2.7644    2.3478 H   0  0
   -8.2905   -2.6429    3.7941 H   0  0
  1  2  1  0
  2  3  1  0
  3  8  2  0
  3  4  1  0
  4  5  2  0
  5  6  1  0
  6  7  2  0
  7  8  1  0
  7  9  1  0
  9 10  1  0
 10 11  2  0
 11 12  1  0
 11 22  1  0
 12 13  1  0
 13 18  2  0
 13 14  1  0
 14 15  2  0
 15 16  1  0
 16 17  2  0
 16 19  1  0
 17 18  1  0
 19 20  2  0
 19 21  1  0
 22 27  1  0
 22 23  1  0
 23 24  1  0
 24 25  1  0
 25 26  1  0
 25 28  1  0
 26 27  1  0
 28 29  1  0
 29 30  1  0
 30 31  3  0
  1 32  1  0
  1 33  1  0
  1 34  1  0
  4 35  1  0
  5 36  1  0
  6 37  1  0
  8 38  1  0
  9 39  1  0
  9 40  1  0
 10 41  1  0
 12 42  1  0
 14 43  1  0
 15 44  1  0
 17 45  1  0
 18 46  1  0
 23 47  1  0
 23 48  1  0
 24 49  1  0
 24 50  1  0
 26 51  1  0
 26 52  1  0
 27 53  1  0
 27 54  1  0
 28 55  1  0
 28 56  1  0
 29 57  1  0
 29 58  1  0
M  CHG  2  10   1  21  -1
M  END
> <Name>
ZINC21046893

> <reference>
BDB50020387

> <quality>
0.729

> <status>
decoy

$$$$
ZINC16456411
  SciTegic06061311253D

 47 47  0  0  1  0            999 V2000
  -14.0638    0.4466    3.0507 C   0  0
  -12.9878    1.3473    2.4409 C   0  0
  -11.7171    0.6447    2.4311 O   0  0
  -10.6589    1.3029    1.9228 C   0  0
  -10.7931    2.4333    1.4991 O   0  0
   -9.4503    0.7078    1.8841 N   0  0
   -8.3906    1.3670    1.3751 C   0  0
   -8.5245    2.4952    0.9522 O   0  0
   -7.0392    0.7015    1.3318 C   0  0
   -6.0710    1.6099    0.7436 O   0  0
   -4.8091    1.1665    0.6316 C   0  0
   -4.5229    0.0561    1.0123 O   0  0
   -3.7492    2.0536    0.0309 C   0  0  2  0  0  0
   -4.1415    2.4182   -1.4023 C   0  0
   -3.1309    3.4173   -1.9691 C   0  0
   -3.5960    3.8496   -3.6684 S   0  0
   -2.3159    5.0250   -4.1882 C   0  0
   -2.4671    1.3447    0.0210 N   0  0
   -1.3126    2.0401    0.0193 C   0  0
   -1.3351    3.2550    0.0261 O   0  0
   -0.0159    1.3231    0.0093 C   0  0
    1.1734    2.0476    0.0019 C   0  0
    2.3795    1.3620   -0.0130 C   0  0
    2.3515   -0.0254   -0.0202 C   0  0
    1.1308   -0.6795   -0.0124 C   0  0
    0.0021   -0.0041    0.0020 N   0  0
    3.8887    2.2199   -0.0228 Cl  0  0
  -13.7828    0.1841    4.0813 H   0  0
  -14.1577   -0.4713    2.4518 H   0  0
  -15.0268    0.9783    3.0584 H   0  0
  -13.2694    1.6091    1.4103 H   0  0
  -12.8938    2.2652    3.0398 H   0  0
   -9.3365   -0.2507    2.2435 H   0  0
   -6.7248    0.4428    2.3537 H   0  0
   -7.0990   -0.2133    0.7239 H   0  0
   -3.6561    2.9712    0.6303 H   0  0
   -4.1466    1.5104   -2.0234 H   0  0
   -5.1443    2.8704   -1.4054 H   0  0
   -3.1256    4.3256   -1.3487 H   0  0
   -2.1276    2.9664   -1.9679 H   0  0
   -1.3149    4.5692   -4.2016 H   0  0
   -2.3202    5.9400   -3.5777 H   0  0
   -2.5493    5.3238   -5.2208 H   0  0
   -2.4480    0.3149    0.0153 H   0  0
    1.1568    3.1475    0.0078 H   0  0
    3.2895   -0.5999   -0.0320 H   0  0
    1.1047   -1.7792   -0.0183 H   0  0
  1  2  1  0
  2  3  1  0
  3  4  1  0
  4  5  2  0
  4  6  1  0
  6  7  1  0
  7  8  2  0
  7  9  1  0
  9 10  1  0
 10 11  1  0
 11 12  2  0
 11 13  1  0
 13 14  1  0
 13 18  1  0
 14 15  1  0
 15 16  1  0
 16 17  1  0
 18 19  1  0
 19 20  2  0
 19 21  1  0
 21 26  2  0
 21 22  1  0
 22 23  2  0
 23 24  1  0
 23 27  1  0
 24 25  2  0
 25 26  1  0
  1 28  1  0
  1 29  1  0
  1 30  1  0
  2 31  1  0
  2 32  1  0
  6 33  1  0
  9 34  1  0
  9 35  1  0
 13 36  1  0
 14 37  1  0
 14 38  1  0
 15 39  1  0
 15 40  1  0
 17 41  1  0
 17 42  1  0
 17 43  1  0
 18 44  1  0
 22 45  1  0
 24 46  1  0
 25 47  1  0
M  END
> <Name>
ZINC16456411

> <reference>
BDB50020387

> <quality>
0.724

> <status>
decoy

$$$$
ZINC23571849
  SciTegic06061311253D

 54 55  0  0  1  0            999 V2000
    7.1125  -12.5935   -0.7398 C   0  0
    6.4558  -11.2118   -0.7627 C   0  0
    5.1478  -11.2967   -0.1935 O   0  0
    4.4245  -10.1494   -0.1375 C   0  0
    3.1410  -10.1590    0.4051 C   0  0
    2.4418   -8.9643    0.4401 C   0  0
    3.0656   -7.8264   -0.0697 C   0  0
    4.2864   -7.9138   -0.5708 N   0  0
    4.9363   -9.0202   -0.5982 N   0  0
    2.3994   -6.5958   -0.0563 N   0  0
    2.9851   -5.3844   -0.0554 C   0  0
    1.9778   -4.4395   -0.0407 C   0  0
    0.7493   -5.1395   -0.0265 C   0  0
    1.0116   -6.4172   -0.0421 N   0  0
    2.1510   -2.9770   -0.0345 C   0  0
    3.2675   -2.4972   -0.0426 O   0  0
    1.0713   -2.1707   -0.0198 O   0  0
    1.3172   -0.7397   -0.0145 C   0  0
    0.0021   -0.0041    0.0020 C   0  0
   -1.0395   -0.6245    0.0086 O   0  0
   -0.0162    1.3436    0.0094 N   0  0
   -1.1924    2.0015    0.0186 C   0  0
   -2.2366    1.3796    0.0202 O   0  0
   -1.2107    3.3491    0.0260 N   0  0
   -2.4892    4.0643    0.0359 C   0  0  2  0  0  0
   -3.0025    4.2114   -1.3979 C   0  0
   -2.2932    5.4509    0.6522 C   0  0
   -1.4326    6.2266   -0.1843 O   0  0
   -1.1831    7.5464    0.3033 C   0  0
    4.4667   -5.1095   -0.0685 C   0  0
    6.5042  -13.2995   -1.3242 H   0  0
    7.1877  -12.9477    0.2989 H   0  0
    8.1195  -12.5289   -1.1778 H   0  0
    7.0646  -10.5066   -0.1778 H   0  0
    6.3806  -10.8575   -1.8014 H   0  0
    2.6969  -11.0873    0.7937 H   0  0
    1.4252   -8.9145    0.8574 H   0  0
   -0.2526   -4.6858   -0.0059 H   0  0
    1.8815   -0.4601   -0.9164 H   0  0
    1.8984   -0.4707    0.8798 H   0  0
    0.8687    1.8707    0.0080 H   0  0
   -0.3258    3.8762    0.0247 H   0  0
   -3.2211    3.4986    0.6311 H   0  0
   -3.1440    3.2149   -1.8418 H   0  0
   -2.2713    4.7771   -1.9940 H   0  0
   -3.9625    4.7484   -1.3911 H   0  0
   -3.2675    5.9536    0.7415 H   0  0
   -1.8401    5.3494    1.6494 H   0  0
   -0.7366    7.4512    1.3041 H   0  0
   -2.1548    8.0524    0.4025 H   0  0
   -0.5176    8.1069   -0.3697 H   0  0
    4.8053   -5.6694   -0.9527 H   0  0
    4.8227   -5.6791    0.8026 H   0  0
    4.7678   -4.0515   -0.0656 H   0  0
  1  2  1  0
  2  3  1  0
  3  4  1  0
  4  9  2  0
  4  5  1  0
  5  6  2  0
  6  7  1  0
  7  8  2  0
  7 10  1  0
  8  9  1  0
 10 14  1  0
 10 11  1  0
 11 12  2  0
 11 30  1  0
 12 13  1  0
 12 15  1  0
 13 14  2  0
 15 16  2  0
 15 17  1  0
 17 18  1  0
 18 19  1  0
 19 20  2  0
 19 21  1  0
 21 22  1  0
 22 23  2  0
 22 24  1  0
 24 25  1  0
 25 26  1  0
 25 27  1  0
 27 28  1  0
 28 29  1  0
  1 31  1  0
  1 32  1  0
  1 33  1  0
  2 34  1  0
  2 35  1  0
  5 36  1  0
  6 37  1  0
 13 38  1  0
 18 39  1  0
 18 40  1  0
 21 41  1  0
 24 42  1  0
 25 43  1  0
 26 44  1  0
 26 45  1  0
 26 46  1  0
 27 47  1  0
 27 48  1  0
 29 49  1  0
 29 50  1  0
 29 51  1  0
 30 52  1  0
 30 53  1  0
 30 54  1  0
M  END
> <Name>
ZINC23571849

> <reference>
BDB50020387

> <quality>
0.723

> <status>
decoy

$$$$
ZINC21887568
  SciTegic06061311253D

 62 63  0  0  1  0            999 V2000
   -7.0621   -7.0713   -1.9306 C   0  0
   -5.7395   -6.3443   -2.1816 C   0  0
   -4.9417   -6.2723   -0.8780 C   0  0
   -3.6191   -5.5453   -1.1290 C   0  0
   -2.8531   -5.4761    0.1226 N   0  3
   -2.4381   -6.8155    0.5605 C   0  0
   -2.0921   -6.7805    2.0505 C   0  0
   -1.6935   -4.5855   -0.0184 C   0  0
   -2.1619   -3.1293    0.0132 C   0  0
   -0.9970   -2.2411   -0.0038 N   0  0
   -1.1683   -0.9045    0.0188 C   0  0
   -2.2892   -0.4360    0.0532 O   0  0
    0.0060   -0.0091    0.0016 C   0  0
   -0.0096    1.3341    0.0208 C   0  0
    1.3744    1.8343   -0.0071 C   0  0
    1.6926    3.0064    0.0009 O   0  0
    2.2349    0.8001   -0.0433 O   0  0
    1.4558   -0.4259   -0.0408 C   0  0  2  0  0  0
    1.7317   -1.2265   -1.3131 C   0  0
    3.2168   -1.5995   -1.3667 C   0  0
    3.5758   -2.2903   -0.1206 N   0  0
    3.2806   -1.6353    1.1609 C   0  0
    1.7950   -1.2617    1.1929 C   0  0
    4.2991   -3.7795   -0.1599 S   0  0
    4.9686   -3.8245   -1.4125 O   0  0
    5.0305   -3.8596    1.0558 O   0  0
    2.9262   -4.9651   -0.1424 C   0  0
   -1.2477    2.1925    0.0584 C   0  0
   -7.6447   -6.5243   -1.1748 H   0  0
   -6.8588   -8.0902   -1.5692 H   0  0
   -7.6362   -7.1234   -2.8675 H   0  0
   -5.1574   -6.8922   -2.9373 H   0  0
   -5.9427   -5.3254   -2.5430 H   0  0
   -5.5230   -5.7242   -0.1220 H   0  0
   -4.7366   -7.2904   -0.5156 H   0  0
   -3.8223   -4.5264   -1.4905 H   0  0
   -3.0370   -6.0932   -1.8847 H   0  0
   -3.4682   -5.0821    0.8488 H   0  0
   -3.2596   -7.5274    0.3920 H   0  0
   -1.5546   -7.1326   -0.0130 H   0  0
   -2.9749   -6.4646    2.6257 H   0  0
   -1.2706   -6.0690    2.2206 H   0  0
   -1.7812   -7.7832    2.3791 H   0  0
   -1.1892   -4.7870   -0.9750 H   0  0
   -0.9921   -4.7625    0.8103 H   0  0
   -2.7896   -2.9267   -0.8671 H   0  0
   -2.7452   -2.9504    0.9285 H   0  0
   -0.0470   -2.6381   -0.0330 H   0  0
    1.4748   -0.6188   -2.1933 H   0  0
    1.1236   -2.1431   -1.3091 H   0  0
    3.3986   -2.2661   -2.2226 H   0  0
    3.8232   -0.6875   -1.4696 H   0  0
    3.5041   -2.3254    1.9878 H   0  0
    3.8906   -0.7253    1.2601 H   0  0
    1.5834   -0.6782    2.1011 H   0  0
    1.1869   -2.1783    1.1950 H   0  0
    2.2839   -4.8544   -1.0285 H   0  0
    2.3291   -4.8801    0.7775 H   0  0
    3.3565   -5.9771   -0.1676 H   0  0
   -1.7813    1.8154    0.9433 H   0  0
   -1.8175    1.8401   -0.8140 H   0  0
   -1.0804    3.2796    0.0702 H   0  0
  1  2  1  0
  2  3  1  0
  3  4  1  0
  4  5  1  0
  5  6  1  0
  5  8  1  0
  6  7  1  0
  8  9  1  0
  9 10  1  0
 10 11  1  0
 11 12  2  0
 11 13  1  0
 13 18  1  0
 13 14  2  0
 14 15  1  0
 14 28  1  0
 15 16  2  0
 15 17  1  0
 17 18  1  0
 18 23  1  0
 18 19  1  0
 19 20  1  0
 20 21  1  0
 21 22  1  0
 21 24  1  0
 22 23  1  0
 24 25  2  0
 24 26  2  0
 24 27  1  0
  1 29  1  0
  1 30  1  0
  1 31  1  0
  2 32  1  0
  2 33  1  0
  3 34  1  0
  3 35  1  0
  4 36  1  0
  4 37  1  0
  5 38  1  0
  6 39  1  0
  6 40  1  0
  7 41  1  0
  7 42  1  0
  7 43  1  0
  8 44  1  0
  8 45  1  0
  9 46  1  0
  9 47  1  0
 10 48  1  0
 19 49  1  0
 19 50  1  0
 20 51  1  0
 20 52  1  0
 22 53  1  0
 22 54  1  0
 23 55  1  0
 23 56  1  0
 27 57  1  0
 27 58  1  0
 27 59  1  0
 28 60  1  0
 28 61  1  0
 28 62  1  0
M  CHG  1   5   1
M  END
> <Name>
ZINC21887568

> <reference>
BDB50020387

> <quality>
0.722

> <status>
decoy

$$$$
ZINC22765231
  SciTegic06061311253D

 43 45  0  0  1  0            999 V2000
  -10.7927   -6.2757   -3.1956 C   0  0
  -10.2577   -5.7400   -1.8925 C   0  0
  -11.0869   -5.1651   -0.9844 C   0  0
   -9.9215   -4.7427    0.3028 S   0  0
   -8.4953   -5.3556   -0.4758 C   0  0
   -8.9740   -5.8130   -1.6097 N   0  0
   -7.0722   -5.3563    0.0200 C   0  5
   -6.9918   -6.1139    1.2795 C   0  0
   -6.9297   -6.6985    2.2515 N   0  0
   -6.6223   -3.9377    0.2574 C   0  0
   -7.4254   -3.0955    0.5801 O   0  0
   -5.1702   -3.5702    0.0922 C   0  0
   -4.9499   -1.8085    0.4446 S   0  0
   -3.2138   -1.6589    0.1830 C   0  0
   -2.3933   -2.6226   -0.1700 N   0  0
   -1.1964   -2.1675   -0.2783 N   0  0
   -1.1768   -0.8841    0.0081 C   0  0
   -2.4706   -0.5187    0.3091 N   0  0
   -2.9498    0.8136    0.6852 C   0  0
   -3.3530    1.5846   -0.5734 C   0  0
   -3.8460    2.9551   -0.1865 C   0  0
   -3.8721    3.2830    0.9809 O   0  0
   -4.2577    3.8166   -1.1377 N   0  0
    0.0021   -0.0041    0.0020 C   0  0
    1.3031   -0.4092   -0.0126 C   0  0
    2.0910    0.7580   -0.0138 C   0  0
    1.2446    1.8069   -0.0001 C   0  0
   -0.0162    1.3435    0.0094 O   0  0
  -10.4776   -7.3293   -3.2185 H   0  0
  -10.2213   -5.7484   -3.9737 H   0  0
  -11.8797   -6.1564   -3.3147 H   0  0
  -12.1741   -5.0040   -1.0286 H   0  0
   -4.5602   -4.1622    0.7903 H   0  0
   -4.8530   -3.7792   -0.9401 H   0  0
   -3.8210    0.7160    1.3496 H   0  0
   -2.1495    1.3584    1.2074 H   0  0
   -4.1541    1.0417   -1.0964 H   0  0
   -2.4821    1.6829   -1.2381 H   0  0
   -4.2354    3.5383   -2.1291 H   0  0
   -4.5947    4.7533   -0.8732 H   0  0
    1.6674   -1.4471   -0.0217 H   0  0
    3.1900    0.8049   -0.0240 H   0  0
    1.5378    2.8671    0.0028 H   0  0
  1  2  1  0
  2  6  1  0
  2  3  2  0
  3  4  1  0
  4  5  1  0
  5  6  2  0
  5  7  1  0
  7  8  1  0
  7 10  1  0
  8  9  3  0
 10 11  2  0
 10 12  1  0
 12 13  1  0
 13 14  1  0
 14 18  1  0
 14 15  2  0
 15 16  1  0
 16 17  2  0
 17 18  1  0
 17 24  1  0
 18 19  1  0
 19 20  1  0
 20 21  1  0
 21 22  2  0
 21 23  1  0
 24 28  1  0
 24 25  2  0
 25 26  1  0
 26 27  2  0
 27 28  1  0
  1 29  1  0
  1 30  1  0
  1 31  1  0
  3 32  1  0
 12 33  1  0
 12 34  1  0
 19 35  1  0
 19 36  1  0
 20 37  1  0
 20 38  1  0
 23 39  1  0
 23 40  1  0
 25 41  1  0
 26 42  1  0
 27 43  1  0
M  CHG  1   7  -1
M  END
> <Name>
ZINC22765231

> <reference>
BDB50020387

> <quality>
0.713

> <status>
decoy

$$$$
ZINC29143423
  SciTegic06061311253D

 51 52  0  0  1  0            999 V2000
   -4.1556    3.7450    9.1564 C   0  0
   -4.6748    2.3782    9.0148 N   0  0
   -4.7151    1.6931   10.3137 C   0  0
   -5.7387    2.3792   11.2205 C   0  0
   -7.0470    2.2195   10.6682 O   0  0
   -8.0792    2.7743   11.3565 C   0  0
   -7.8382    3.4535   12.5423 C   0  0
   -8.8879    4.0217   13.2375 C   0  0
  -10.1798    3.9046   12.7590 C   0  0
  -10.4240    3.2231   11.5799 C   0  0
   -9.3755    2.6576   10.8776 C   0  0
  -12.0473    3.0774   10.9821 Cl  0  0
   -3.8850    1.6133    8.0405 C   0  0
   -4.0660    2.2095    6.6684 C   0  0
   -4.7824    3.1764    6.5169 O   0  0
   -3.4318    1.6683    5.6094 N   0  0
   -3.6000    2.2226    4.3338 N   0  0
   -2.9658    1.6814    3.2749 C   0  0
   -2.2494    0.7145    3.4263 O   0  0
   -3.1468    2.2776    1.9027 C   0  0
   -2.3242    1.4810    0.8880 C   0  0  2  0  0  0
   -0.8280    1.6307    1.2154 C   0  0
   -0.0127    1.0858    0.0080 C   0  0
   -1.0056    1.7465   -1.3965 S   0  0
   -0.4740    3.0052   -1.7866 O   0  0
   -1.1672    0.7238   -2.3697 O   0  0
   -2.6090    2.0146   -0.5366 C   0  0
   -3.1408    3.6978    9.5783 H   0  0
   -4.8065    4.3028    9.8458 H   0  0
   -4.1311    4.2453    8.1770 H   0  0
   -3.7217    1.7376   10.7840 H   0  0
   -5.0038    0.6421   10.1653 H   0  0
   -5.7056    1.9238   12.2213 H   0  0
   -5.5022    3.4507   11.2972 H   0  0
   -6.8118    3.5394   12.9285 H   0  0
   -8.6958    4.5679   14.1728 H   0  0
  -11.0148    4.3539   13.3166 H   0  0
   -9.5694    2.1158    9.9401 H   0  0
   -4.2242    0.5669    8.0325 H   0  0
   -2.8216    1.6519    8.3191 H   0  0
   -2.8235    0.8471    5.7379 H   0  0
   -4.2084    3.0437    4.2052 H   0  0
   -2.8071    3.3238    1.9085 H   0  0
   -4.2100    2.2388    1.6232 H   0  0
   -2.6010    0.4175    0.9372 H   0  0
   -0.5854    1.0494    2.1172 H   0  0
   -0.5882    2.6925    1.3740 H   0  0
   -0.0248   -0.0140   -0.0089 H   0  0
    0.9977    1.5203   -0.0097 H   0  0
   -3.3970    1.4196   -1.0214 H   0  0
   -2.8423    3.0892   -0.5080 H   0  0
  1  2  1  0
  2  3  1  0
  2 13  1  0
  3  4  1  0
  4  5  1  0
  5  6  1  0
  6 11  2  0
  6  7  1  0
  7  8  2  0
  8  9  1  0
  9 10  2  0
 10 11  1  0
 10 12  1  0
 13 14  1  0
 14 15  2  0
 14 16  1  0
 16 17  1  0
 17 18  1  0
 18 19  2  0
 18 20  1  0
 20 21  1  0
 21 27  1  0
 21 22  1  0
 22 23  1  0
 23 24  1  0
 24 25  2  0
 24 26  2  0
 24 27  1  0
  1 28  1  0
  1 29  1  0
  1 30  1  0
  3 31  1  0
  3 32  1  0
  4 33  1  0
  4 34  1  0
  7 35  1  0
  8 36  1  0
  9 37  1  0
 11 38  1  0
 13 39  1  0
 13 40  1  0
 16 41  1  0
 17 42  1  0
 20 43  1  0
 20 44  1  0
 21 45  1  0
 22 46  1  0
 22 47  1  0
 23 48  1  0
 23 49  1  0
 27 50  1  0
 27 51  1  0
M  END
> <Name>
ZINC29143423

> <reference>
BDB50020387

> <quality>
0.713

> <status>
decoy

$$$$
ZINC26560190
  SciTegic06061311253D

 45 47  0  0  0  0            999 V2000
    1.9159   13.7019    3.5283 C   0  0
    2.8286   12.6437    3.2297 O   0  0
    2.9550   12.3615    1.8345 C   0  0
    3.9519   11.2184    1.6337 C   0  0
    4.0873   10.9162    0.1399 C   0  0
    5.0418    9.8217   -0.0524 N   0  0
    6.3718    9.9558   -0.2252 C   0  0
    6.9925   11.0039   -0.2488 O   0  0
    6.8902    8.7191   -0.3728 N   0  0
    5.8306    7.8063   -0.2790 N   0  0
    4.7341    8.4803   -0.0841 C   0  0
    3.1231    7.7909    0.1008 S   0  0
    3.5141    6.0310   -0.0597 C   0  0
    2.2494    5.2216    0.0694 C   0  0
    1.1881    5.7798    0.2519 O   0  0
    2.2976    3.8776   -0.0181 N   0  0
    1.1115    3.1320   -0.0089 C   0  0
   -0.0312    3.6378   -0.6140 C   0  0
   -1.2031    2.9008   -0.6042 C   0  0
   -1.2315    1.6495    0.0080 C   0  0
   -0.0908    1.1511    0.6154 C   0  0
    1.0786    1.8878    0.6055 C   0  0
    2.2972    1.3492    1.2505 N   0  0
    2.2470    0.2999    1.8669 O   0  0
    3.3502    1.9553    1.1647 O   0  0
   -2.4905    1.1337   -0.1129 O   0  0
   -3.3340    2.2498   -0.4536 C   0  0
   -2.4407    3.1639   -1.1166 O   0  0
    0.9348   13.4189    3.1191 H   0  0
    2.2667   14.6011    3.0007 H   0  0
    1.8496   13.8851    4.6109 H   0  0
    1.9753   12.0683    1.4293 H   0  0
    3.3157   13.2581    1.3091 H   0  0
    4.9320   11.5111    2.0383 H   0  0
    3.5923   10.3205    2.1575 H   0  0
    4.4480   11.8128   -0.3855 H   0  0
    3.1076   10.6230   -0.2653 H   0  0
    7.8822    8.4881   -0.5262 H   0  0
    4.2190    5.7372    0.7320 H   0  0
    3.9692    5.8447   -1.0436 H   0  0
    3.2065    3.3986   -0.0917 H   0  0
   -0.0054    4.6238   -1.1010 H   0  0
   -0.1156    0.1672    1.1066 H   0  0
   -4.1293    1.9292   -1.1426 H   0  0
   -3.7420    2.7116    0.4576 H   0  0
  1  2  1  0
  2  3  1  0
  3  4  1  0
  4  5  1  0
  5  6  1  0
  6 11  1  0
  6  7  1  0
  7  8  2  0
  7  9  1  0
  9 10  1  0
 10 11  2  0
 11 12  1  0
 12 13  1  0
 13 14  1  0
 14 15  2  0
 14 16  1  0
 16 17  1  0
 17 22  2  0
 17 18  1  0
 18 19  2  0
 19 28  1  0
 19 20  1  0
 20 21  2  0
 20 26  1  0
 21 22  1  0
 22 23  1  0
 23 24  2  0
 23 25  2  0
 26 27  1  0
 27 28  1  0
  1 29  1  0
  1 30  1  0
  1 31  1  0
  3 32  1  0
  3 33  1  0
  4 34  1  0
  4 35  1  0
  5 36  1  0
  5 37  1  0
  9 38  1  0
 13 39  1  0
 13 40  1  0
 16 41  1  0
 18 42  1  0
 21 43  1  0
 27 44  1  0
 27 45  1  0
M  END
> <Name>
ZINC26560190

> <reference>
BDB50020387

> <quality>
0.713

> <status>
decoy

$$$$
ZINC07296543
  SciTegic06061311253D

 54 56  0  0  1  0            999 V2000
    1.6660    0.2514    4.9781 C   0  0
    1.9245    1.3972    4.0340 C   0  0
    2.9897    2.3205    4.1033 C   0  0
    2.8365    3.2017    3.0470 C   0  0
    1.7450    2.8521    2.3507 N   0  0
    1.1680    1.7429    2.9351 C   0  0
    0.0000    1.0800    2.4877 C   0  0
   -0.4145    0.1092    3.0876 O   0  0
   -0.7288    1.5792    1.2668 C   0  0  1  0  0  0
   -0.0127    1.0858    0.0080 C   0  0
   -2.0911    1.0767    1.2771 O   0  0
   -3.0269    1.8407    0.6921 C   0  0
   -2.7181    2.8945    0.1881 O   0  0
   -4.4628    1.3840    0.6639 C   0  0
   -5.2802    2.3855   -0.0253 N   0  0
   -5.5190    2.3852   -1.3517 C   0  0
   -5.1122    1.5872   -2.1688 O   0  0
   -6.4011    3.5906   -1.6096 C   0  0  1  0  0  0
   -6.5731    4.1860   -0.2732 N   0  5
   -5.8867    3.4100    0.5850 C   0  0
   -5.8220    3.6183    1.7806 O   0  0
   -5.7070    4.5732   -2.5550 C   0  0
   -7.7514    3.1566   -2.1834 C   0  0  2  0  0  0
   -8.0038    3.4169   -3.6698 C   0  0
   -8.7231    4.2576   -2.6130 C   0  0
    3.7451    4.3620    2.7320 C   0  0
    4.0604    2.3457    5.1144 C   0  0
    3.9137    2.9825    6.1390 O   0  0
    5.2026    1.6625    4.9033 O   0  0
    6.2142    1.7325    5.9426 C   0  0
    1.6116   -0.6080    4.2937 H   0  0
    0.6311    0.4414    5.2988 H   0  0
    2.3781    0.1231    5.8067 H   0  0
    1.3928    3.3352    1.5120 H   0  0
   -0.7436    2.6791    1.2728 H   0  0
    0.0025   -0.0141    0.0009 H   0  0
    1.0194    1.4662   -0.0009 H   0  0
   -0.5442    1.4499   -0.8836 H   0  0
   -4.5322    0.4246    0.1303 H   0  0
   -4.8291    1.2583    1.6935 H   0  0
   -5.4929    4.0647   -3.5066 H   0  0
   -4.7610    4.9014   -2.0997 H   0  0
   -6.3551    5.4435   -2.7354 H   0  0
   -7.8132    2.2770   -1.5258 H   0  0
   -8.6721    2.6591   -4.1046 H   0  0
   -7.1724    3.9722   -4.1286 H   0  0
   -8.2707    5.2556   -2.5163 H   0  0
   -9.7697    3.9417   -2.4910 H   0  0
    4.7328    3.8827    2.6626 H   0  0
    3.7508    4.9267    3.6759 H   0  0
    3.4786    4.9656    1.8519 H   0  0
    5.7365    1.3703    6.8649 H   0  0
    6.4458    2.7992    6.0783 H   0  0
    7.1147    1.1504    5.6973 H   0  0
  1  2  1  0
  2  6  2  0
  2  3  1  0
  3  4  2  0
  3 27  1  0
  4  5  1  0
  4 26  1  0
  5  6  1  0
  6  7  1  0
  7  8  2  0
  7  9  1  0
  9 10  1  0
  9 11  1  0
 11 12  1  0
 12 13  2  0
 12 14  1  0
 14 15  1  0
 15 20  1  0
 15 16  1  0
 16 17  2  0
 16 18  1  0
 18 19  1  0
 18 22  1  0
 18 23  1  0
 19 20  1  0
 20 21  2  0
 23 25  1  0
 23 24  1  0
 24 25  1  0
 27 28  2  0
 27 29  1  0
 29 30  1  0
  1 31  1  0
  1 32  1  0
  1 33  1  0
  5 34  1  0
  9 35  1  0
 10 36  1  0
 10 37  1  0
 10 38  1  0
 14 39  1  0
 14 40  1  0
 22 41  1  0
 22 42  1  0
 22 43  1  0
 23 44  1  0
 24 45  1  0
 24 46  1  0
 25 47  1  0
 25 48  1  0
 26 49  1  0
 26 50  1  0
 26 51  1  0
 30 52  1  0
 30 53  1  0
 30 54  1  0
M  CHG  1  19  -1
M  END
> <Name>
ZINC07296543

> <reference>
BDB50020387

> <quality>
0.708

> <status>
decoy

$$$$
ZINC24932376
  SciTegic06061311253D

 51 52  0  0  0  0            999 V2000
    9.6639   14.8251   -2.5267 C   0  0
    8.3659   14.3164   -2.2129 O   0  0
    7.7611   14.9300   -1.0728 C   0  0
    6.3828   14.3110   -0.8316 C   0  0
    6.5336   12.9332   -0.4839 O   0  0
    5.3974   12.2321   -0.2357 C   0  0
    4.1625   12.8600   -0.3251 C   0  0
    3.0065   12.1517   -0.0789 C   0  0
    3.0759   10.8013    0.2720 C   0  0
    4.3188   10.1690    0.3621 C   0  0
    5.4736   10.8834    0.1088 C   0  0
    6.6849   10.2712    0.1961 O   0  0
    6.6884    8.8879    0.5544 C   0  0
    1.8388   10.0424    0.5411 C   0  0
    1.0515   10.4402    1.3779 O   0  0
    1.5819    8.9087   -0.1408 N   0  0
    0.3540    8.1555    0.1263 C   0  0
    0.3071    6.9203   -0.7753 C   0  0
   -0.9207    6.1671   -0.5082 N   0  0
   -1.1849    5.0012   -1.2094 C   0  0
   -0.2758    4.5543   -2.1664 C   0  0
   -0.5399    3.4026   -2.8576 C   0  0
   -1.7267    2.7089   -2.5741 C   0  0
   -2.5942    3.2179   -1.6063 C   0  0
   -2.2990    4.3273   -0.9606 N   0  0
   -2.0458    1.4999   -3.2719 C   0  0
   -2.2989    0.5407   -3.8255 N   0  0
    1.6912   12.8232   -0.1807 N   0  0
    1.6341   14.0262   -0.3629 O   0  0
    0.6662   12.1728   -0.0824 O   0  0
   10.3022   14.6724   -1.6439 H   0  0
    9.5631   15.9066   -2.7002 H   0  0
   10.0912   14.3260   -3.4089 H   0  0
    7.6511   16.0098   -1.2513 H   0  0
    8.3953   14.7672   -0.1889 H   0  0
    5.8804   14.8430   -0.0103 H   0  0
    5.7775   14.3934   -1.7463 H   0  0
    4.1067   13.9254   -0.5931 H   0  0
    4.3774    9.1048    0.6341 H   0  0
    6.0704    8.3726   -0.1956 H   0  0
    6.1716    8.8180    1.5229 H   0  0
    7.7022    8.4639    0.6046 H   0  0
    2.2488    8.5718   -0.8497 H   0  0
    0.3389    7.8404    1.1801 H   0  0
   -0.5197    8.7916   -0.0788 H   0  0
    0.3218    7.2347   -1.8293 H   0  0
    1.1796    6.2823   -0.5708 H   0  0
   -1.5876    6.5040    0.2007 H   0  0
    0.6455    5.1217   -2.3645 H   0  0
    0.1620    3.0293   -3.6179 H   0  0
   -3.5317    2.6884   -1.3811 H   0  0
  1  2  1  0
  2  3  1  0
  3  4  1  0
  4  5  1  0
  5  6  1  0
  6 11  2  0
  6  7  1  0
  7  8  2  0
  8  9  1  0
  8 28  1  0
  9 10  2  0
  9 14  1  0
 10 11  1  0
 11 12  1  0
 12 13  1  0
 14 15  2  0
 14 16  1  0
 16 17  1  0
 17 18  1  0
 18 19  1  0
 19 20  1  0
 20 25  2  0
 20 21  1  0
 21 22  2  0
 22 23  1  0
 23 24  2  0
 23 26  1  0
 24 25  1  0
 26 27  3  0
 28 29  2  0
 28 30  2  0
  1 31  1  0
  1 32  1  0
  1 33  1  0
  3 34  1  0
  3 35  1  0
  4 36  1  0
  4 37  1  0
  7 38  1  0
 10 39  1  0
 13 40  1  0
 13 41  1  0
 13 42  1  0
 16 43  1  0
 17 44  1  0
 17 45  1  0
 18 46  1  0
 18 47  1  0
 19 48  1  0
 21 49  1  0
 22 50  1  0
 24 51  1  0
M  END
> <Name>
ZINC24932376

> <reference>
BDB50020387

> <quality>
0.704

> <status>
decoy

$$$$
ZINC28148781
  SciTegic06061311253D

 55 56  0  0  1  0            999 V2000
    2.5318    0.1978    1.2603 C   0  0
    2.0149    1.6378    1.2486 C   0  0
    1.1581    1.8620    0.0010 C   0  0  2  0  0  0
    0.5446    3.2481    0.0134 C   0  0
    1.1317    4.3087    0.0137 O   0  0
   -0.7893    3.0560    0.0247 N   0  0
   -1.1006    1.7549    0.0161 C   0  0
   -2.2404    1.3329    0.0190 O   0  0
   -0.0111    0.9658    0.0074 N   0  5
   -1.7333    4.0911    0.0376 N   0  0
   -2.4209    4.3902   -1.0824 C   0  0
   -2.2223    3.7632   -2.1014 O   0  0
   -3.4364    5.5035   -1.0685 C   0  0
   -4.0363    5.6279   -2.3849 O   0  0
   -4.9681    6.5811   -2.5423 C   0  0
   -5.2725    7.2881   -1.6109 O   0  0
   -5.6348    6.7695   -3.8806 C   0  0
   -6.6053    7.8634   -3.7931 N   0  0
   -7.9193    7.7138   -3.4582 C   0  0
   -8.5161    8.9184   -3.4709 C   0  0
   -7.4834    9.8876   -3.8551 C   0  0
   -6.3282    9.1580   -4.0374 C   0  0
   -4.9866    9.7136   -4.4406 C   0  0
   -7.6476   11.3408   -4.0138 C   0  0
   -6.6991   12.0277   -4.3394 O   0  0
   -8.8499   11.9107   -3.7982 O   0  0
   -8.9384   13.3494   -3.9734 C   0  0
  -10.3688   13.8110   -3.6873 C   0  0
   -8.5929    6.4080   -3.1234 C   0  0
    1.9898    1.6527   -1.2660 C   0  0
    3.1400    0.0181    0.3615 H   0  0
    1.6803   -0.4985    1.2712 H   0  0
    3.1479    0.0359    2.1571 H   0  0
    2.8664    2.3341    1.2377 H   0  0
    1.4066    1.8165    2.1475 H   0  0
   -1.9019    4.6236    0.9030 H   0  0
   -4.2190    5.2769   -0.3294 H   0  0
   -2.9420    6.4490   -0.8009 H   0  0
   -6.1531    5.8425   -4.1670 H   0  0
   -4.8751    7.0137   -4.6377 H   0  0
   -9.5695    9.1346   -3.2393 H   0  0
   -4.7372    9.1198   -5.3323 H   0  0
   -4.3244    9.3507   -3.6407 H   0  0
   -4.9391   10.8009   -4.6006 H   0  0
   -8.6693   13.6112   -5.0073 H   0  0
   -8.2470   13.8469   -3.2774 H   0  0
  -10.6392   13.5509   -2.6533 H   0  0
  -11.0615   13.3144   -4.3827 H   0  0
  -10.4365   14.9009   -3.8199 H   0  0
   -7.9669    6.0121   -2.3102 H   0  0
   -8.3731    5.7873   -4.0045 H   0  0
   -9.6628    6.4646   -2.8744 H   0  0
    2.3840    0.6258   -1.2711 H   0  0
    2.8300    2.3626   -1.2653 H   0  0
    1.3654    1.8160   -2.1568 H   0  0
  1  2  1  0
  2  3  1  0
  3  9  1  0
  3  4  1  0
  3 30  1  0
  4  5  2  0
  4  6  1  0
  6  7  1  0
  6 10  1  0
  7  8  2  0
  7  9  1  0
 10 11  1  0
 11 12  2  0
 11 13  1  0
 13 14  1  0
 14 15  1  0
 15 16  2  0
 15 17  1  0
 17 18  1  0
 18 22  1  0
 18 19  1  0
 19 20  2  0
 19 29  1  0
 20 21  1  0
 21 22  2  0
 21 24  1  0
 22 23  1  0
 24 25  2  0
 24 26  1  0
 26 27  1  0
 27 28  1  0
  1 31  1  0
  1 32  1  0
  1 33  1  0
  2 34  1  0
  2 35  1  0
 10 36  1  0
 13 37  1  0
 13 38  1  0
 17 39  1  0
 17 40  1  0
 20 41  1  0
 23 42  1  0
 23 43  1  0
 23 44  1  0
 27 45  1  0
 27 46  1  0
 28 47  1  0
 28 48  1  0
 28 49  1  0
 29 50  1  0
 29 51  1  0
 29 52  1  0
 30 53  1  0
 30 54  1  0
 30 55  1  0
M  CHG  1   9  -1
M  END
> <Name>
ZINC28148781

> <reference>
BDB50020387

> <quality>
0.702

> <status>
decoy

$$$$
ZINC15050311
  SciTegic06061311253D

 50 51  0  0  0  0            999 V2000
    0.2775   -1.1769   13.0327 C   0  0
    1.5941   -1.0231   13.5665 O   0  0
    2.4450   -0.2092   12.8861 C   0  0
    2.0196    0.4284   11.7373 C   0  0
    2.9003    1.2615   11.0366 C   0  0
    4.2039    1.4516   11.5109 C   0  0
    4.6175    0.8155   12.6606 C   0  0
    3.7448   -0.0145   13.3516 C   0  0
    4.1586   -0.6386   14.4851 O   0  0
    2.4561    1.9385    9.8116 C   0  0
    1.2579    1.6227    9.2580 C   0  0
    0.5407    2.2631    8.1376 C   0  0
    1.0008    3.2246    7.5503 O   0  0
   -0.6267    1.7388    7.8043 N   0  0
   -1.1352    0.6764    8.4611 C   0  0
   -2.1892    0.1014    8.2659 O   0  0
    0.1141    0.3168    9.6850 S   0  0
   -1.3876    2.3292    6.7003 C   0  0
   -0.9965    1.6616    5.4071 C   0  0
   -0.1642    0.7794    5.4076 O   0  0
   -1.5717    2.0448    4.2501 N   0  0
   -1.1915    1.3958    2.9929 C   0  0
   -1.9862    2.0124    1.8400 C   0  0
   -1.5891    1.3346    0.5270 C   0  0
   -2.3837    1.9512   -0.6259 C   0  0
   -1.9867    1.2734   -1.9389 C   0  0
   -2.7694    1.8807   -3.0745 C   0  0
   -3.5633    2.7650   -2.8561 O   0  0
   -2.5846    1.4393   -4.3286 O   0  5
    0.4019   -1.5524   12.0063 H   0  0
   -0.1518   -0.1659   12.9724 H   0  0
   -0.3507   -1.8484   13.6364 H   0  0
    0.9918    0.2822   11.3737 H   0  0
    4.8975    2.1086   10.9657 H   0  0
    5.6419    0.9655   13.0323 H   0  0
    4.0072   -1.6022   14.3161 H   0  0
    3.0946    2.7017    9.3426 H   0  0
   -1.1691    3.4054    6.6372 H   0  0
   -2.4635    2.1832    6.8769 H   0  0
   -2.2786    2.7939    4.2497 H   0  0
   -0.1158    1.5418    2.8154 H   0  0
   -1.4104    0.3195    3.0537 H   0  0
   -3.0620    1.8663    2.0167 H   0  0
   -1.7677    3.0886    1.7769 H   0  0
   -0.5134    1.4806    0.3495 H   0  0
   -1.8080    0.2583    0.5878 H   0  0
   -3.4596    1.8052   -0.4492 H   0  0
   -2.1651    3.0274   -0.6890 H   0  0
   -2.2056    0.1971   -1.8780 H   0  0
   -0.9110    1.4194   -2.1164 H   0  0
  1  2  1  0
  2  3  1  0
  3  8  2  0
  3  4  1  0
  4  5  2  0
  5  6  1  0
  5 10  1  0
  6  7  2  0
  7  8  1  0
  8  9  1  0
 10 11  2  0
 11 17  1  0
 11 12  1  0
 12 13  2  0
 12 14  1  0
 14 15  1  0
 14 18  1  0
 15 16  2  0
 15 17  1  0
 18 19  1  0
 19 20  2  0
 19 21  1  0
 21 22  1  0
 22 23  1  0
 23 24  1  0
 24 25  1  0
 25 26  1  0
 26 27  1  0
 27 28  2  0
 27 29  1  0
  1 30  1  0
  1 31  1  0
  1 32  1  0
  4 33  1  0
  6 34  1  0
  7 35  1  0
  9 36  1  0
 10 37  1  0
 18 38  1  0
 18 39  1  0
 21 40  1  0
 22 41  1  0
 22 42  1  0
 23 43  1  0
 23 44  1  0
 24 45  1  0
 24 46  1  0
 25 47  1  0
 25 48  1  0
 26 49  1  0
 26 50  1  0
M  CHG  1  29  -1
M  END
> <Name>
ZINC15050311

> <reference>
BDB50020387

> <quality>
0.702

> <status>
decoy

$$$$
ZINC29589685
  SciTegic06061311253D

 51 52  0  0  0  0            999 V2000
    9.6680    3.5247   10.6503 C   0  0
    8.3424    3.2782    9.9273 C   0  0
    8.6009    2.7420    8.6282 O   0  0
    7.5299    2.4661    7.8550 C   0  0
    6.4069    2.6758    8.2739 O   0  0
    7.7127    1.9332    6.5575 C   0  0
    6.6665    1.7543    5.7224 C   0  0
    6.8436    1.2341    4.4723 N   0  0
    8.0361    0.8784    3.9781 C   0  0
    8.0948    0.4289    2.8502 O   0  0
    9.1728    0.9974    4.6924 N   0  0
    9.0889    1.5433    6.0575 C   0  0
    5.2804    2.1290    6.1799 C   0  0
    4.3450    1.9544    5.0831 O   0  0
    3.0581    2.2474    5.3273 C   0  0
    2.7242    2.6369    6.4212 O   0  0
    2.0296    2.0906    4.2370 C   0  0
    0.4010    2.5604    4.8717 S   0  0
   -0.5783    2.2891    3.4323 C   0  0
   -1.9625    2.5365    3.4708 C   0  0
   -2.7188    2.3136    2.3150 C   0  0
   -2.0677    1.8631    1.1795 C   0  0
   -0.7036    1.6377    1.2204 C   0  0
   -0.0074    1.8536    2.3195 N   0  0
    0.0012    1.1419   -0.0159 C   0  0
   -2.8402    1.6151   -0.0904 C   0  0
   -4.2050    2.5631    2.3048 C   0  0
   -2.5860    3.0075    4.6708 C   0  0
   -3.0807    3.3811    5.6228 N   0  0
   10.2741    4.2389   10.0736 H   0  0
   10.2153    2.5756   10.7484 H   0  0
    9.4697    3.9375   11.6504 H   0  0
    7.7371    2.5637   10.5045 H   0  0
    7.7950    4.2273    9.8292 H   0  0
    6.0132    1.1083    3.8761 H   0  0
   10.0787    0.7133    4.2930 H   0  0
    9.5137    0.8023    6.7507 H   0  0
    9.7420    2.4266    6.1154 H   0  0
    4.9843    1.4834    7.0199 H   0  0
    5.2718    3.1800    6.5044 H   0  0
    2.2928    2.7392    3.3884 H   0  0
    2.0039    1.0427    3.9035 H   0  0
   -0.2236    1.8841   -0.7960 H   0  0
   -0.5153    0.2105   -0.2911 H   0  0
    1.0826    0.9952    0.1224 H   0  0
   -3.3393    2.5704   -0.3101 H   0  0
   -3.6246    0.8968    0.1903 H   0  0
   -2.2218    1.2593   -0.9277 H   0  0
   -4.3135    3.6124    2.6165 H   0  0
   -4.5973    1.9428    3.1242 H   0  0
   -4.6924    2.3530    1.3413 H   0  0
  1  2  1  0
  2  3  1  0
  3  4  1  0
  4  5  2  0
  4  6  1  0
  6 12  1  0
  6  7  2  0
  7  8  1  0
  7 13  1  0
  8  9  1  0
  9 10  2  0
  9 11  1  0
 11 12  1  0
 13 14  1  0
 14 15  1  0
 15 16  2  0
 15 17  1  0
 17 18  1  0
 18 19  1  0
 19 24  2  0
 19 20  1  0
 20 21  2  0
 20 28  1  0
 21 22  1  0
 21 27  1  0
 22 23  2  0
 22 26  1  0
 23 24  1  0
 23 25  1  0
 28 29  3  0
  1 30  1  0
  1 31  1  0
  1 32  1  0
  2 33  1  0
  2 34  1  0
  8 35  1  0
 11 36  1  0
 12 37  1  0
 12 38  1  0
 13 39  1  0
 13 40  1  0
 17 41  1  0
 17 42  1  0
 25 43  1  0
 25 44  1  0
 25 45  1  0
 26 46  1  0
 26 47  1  0
 26 48  1  0
 27 49  1  0
 27 50  1  0
 27 51  1  0
M  END
> <Name>
ZINC29589685

> <reference>
BDB50020387

> <quality>
0.698

> <status>
decoy

$$$$
ZINC30560072
  SciTegic06061311253D

 59 61  0  0  1  0            999 V2000
    2.0133    9.5876    2.4849 C   0  0
    2.4363    9.7175    1.0203 C   0  0
    1.1927    9.7243    0.1290 C   0  0  1  0  0  0
    1.6040   10.0025   -1.3182 C   0  0
    0.3517   10.1705   -2.1810 C   0  0
    0.5002    8.3623    0.2095 C   0  0  2  0  0  0
    1.4005    7.2946   -0.4152 C   0  0
    0.8475    5.9666   -0.1384 N   0  0
    1.4859    4.8652   -0.5810 C   0  0
    2.5217    4.9738   -1.2105 O   0  0
    0.9322    3.5357   -0.3039 C   0  0
    1.4744    2.3440   -0.6917 C   0  0
    0.6200    1.3377   -0.2147 C   0  0
   -0.3962    1.9516    0.4305 C   0  0
   -0.2017    3.2757    0.3792 O   0  0
   -1.7520    1.1431    1.2133 S   0  0
   -2.8154    2.0847    1.2582 O   0  0
   -1.8841   -0.1260    0.5879 O   0  0
   -1.3097    0.8537    2.7827 N   0  0
   -1.0677    1.9748    3.6942 C   0  0  2  0  0  0
    0.0135    1.7964    4.7620 C   0  0
   -1.4637    1.7912    5.1606 C   0  0
   -0.7736    8.4169   -0.5202 N   0  0
   -1.7475    9.2647    0.1825 C   0  0
   -3.0364    9.3417   -0.6401 C   0  0
   -3.5324    8.0192   -0.8646 O   0  0
   -2.6096    7.1664   -1.5477 C   0  0
   -1.3164    7.0674   -0.7342 C   0  0
    1.4574    8.6488    2.6252 H   0  0
    1.3713   10.4377    2.7590 H   0  0
    2.9069    9.5826    3.1263 H   0  0
    3.0783    8.8674    0.7461 H   0  0
    2.9918   10.6566    0.8809 H   0  0
    0.5009   10.5083    0.4708 H   0  0
    2.2028   10.9243   -1.3586 H   0  0
    2.2007    9.1606   -1.6993 H   0  0
   -0.2457   11.0128   -1.8020 H   0  0
   -0.2482    9.2493   -2.1417 H   0  0
    0.6467   10.3705   -3.2217 H   0  0
    0.3089    8.1099    1.2629 H   0  0
    1.4532    7.4498   -1.5029 H   0  0
    2.4103    7.3674    0.0149 H   0  0
   -0.0292    5.8746    0.3944 H   0  0
    2.4012    2.2004   -1.2665 H   0  0
    0.7527    0.2532   -0.3422 H   0  0
   -1.2047   -0.1145    3.1180 H   0  0
   -1.2796    2.7258    2.9189 H   0  0
    0.4948    2.7532    5.0130 H   0  0
    0.4302    0.7785    4.7475 H   0  0
   -1.8241    0.7706    5.3567 H   0  0
   -1.7600    2.7455    5.6206 H   0  0
   -1.3325   10.2756    0.3087 H   0  0
   -1.9677    8.8310    1.1691 H   0  0
   -3.7883    9.9271   -0.0906 H   0  0
   -2.8282    9.8241   -1.6065 H   0  0
   -3.0494    6.1645   -1.6604 H   0  0
   -2.3869    7.5847   -2.5404 H   0  0
   -0.5830    6.4594   -1.2841 H   0  0
   -1.5298    6.5978    0.2374 H   0  0
  1  2  1  0
  2  3  1  0
  3  4  1  0
  3  6  1  0
  4  5  1  0
  6  7  1  0
  6 23  1  0
  7  8  1  0
  8  9  1  0
  9 10  2  0
  9 11  1  0
 11 15  1  0
 11 12  2  0
 12 13  1  0
 13 14  2  0
 14 15  1  0
 14 16  1  0
 16 17  2  0
 16 18  2  0
 16 19  1  0
 19 20  1  0
 20 22  1  0
 20 21  1  0
 21 22  1  0
 23 28  1  0
 23 24  1  0
 24 25  1  0
 25 26  1  0
 26 27  1  0
 27 28  1  0
  1 29  1  0
  1 30  1  0
  1 31  1  0
  2 32  1  0
  2 33  1  0
  3 34  1  0
  4 35  1  0
  4 36  1  0
  5 37  1  0
  5 38  1  0
  5 39  1  0
  6 40  1  0
  7 41  1  0
  7 42  1  0
  8 43  1  0
 12 44  1  0
 13 45  1  0
 19 46  1  0
 20 47  1  0
 21 48  1  0
 21 49  1  0
 22 50  1  0
 22 51  1  0
 24 52  1  0
 24 53  1  0
 25 54  1  0
 25 55  1  0
 27 56  1  0
 27 57  1  0
 28 58  1  0
 28 59  1  0
M  END
> <Name>
ZINC30560072

> <reference>
BDB50020387

> <quality>
0.697

> <status>
decoy

$$$$
ZINC26224168
  SciTegic06061311253D

 48 49  0  0  1  0            999 V2000
   -9.8560    0.8344    0.1080 C   0  0
   -8.8022   -0.1253    0.0052 O   0  0
   -7.5280    0.3523    0.0207 C   0  0
   -7.3036    1.7079    0.1319 C   0  0
   -5.9926    2.1996    0.1484 C   0  0
   -4.9124    1.3065    0.0512 C   0  0
   -5.1520   -0.0544   -0.0655 C   0  0
   -6.4522   -0.5322   -0.0757 C   0  0
   -6.6815   -1.8660   -0.1850 O   0  0
   -5.5363   -2.7155   -0.2797 C   0  0  1  0  0  0
   -4.7904   -2.3683   -1.4112 F   0  0
   -4.7462   -2.5624    0.8647 F   0  0
   -3.6073    1.7861    0.0663 N   0  0
   -2.4823    0.8480    0.0818 C   0  0
   -1.1866    1.6175    0.0962 C   0  0
   -1.2016    2.8302    0.0937 O   0  0
   -0.0113    0.9581    0.1119 N   0  0
    1.2483    1.7062    0.1198 C   0  0  2  0  0  0
    1.6586    2.0475   -1.3223 C   0  0
    3.1234    2.5461   -1.3503 C   0  0
    3.8679    1.6931    0.0991 S   0  0
    4.2889    2.6681    1.0433 O   0  0
    4.7952    0.7201   -0.3621 O   0  0
    2.3726    0.8352    0.7495 C   0  0
   -5.7475    3.6445    0.2673 C   0  0
   -4.6160    4.0787    0.1743 O   0  0
   -6.7777    4.4877    0.4794 O   0  0
   -6.4617    5.9008    0.5865 C   0  0
   -9.7174    1.5365   -0.7274 H   0  0
   -9.6823    1.3853    1.0441 H   0  0
  -10.8546    0.3736    0.0885 H   0  0
   -8.1533    2.4024    0.2076 H   0  0
   -4.3085   -0.7554   -0.1501 H   0  0
   -5.8625   -3.7627   -0.3627 H   0  0
   -3.4316    2.8010    0.0666 H   0  0
   -2.5207    0.2128   -0.8155 H   0  0
   -2.5433    0.2169    0.9807 H   0  0
    0.0013   -0.0718    0.1183 H   0  0
    1.1073    2.6274    0.7042 H   0  0
    0.9979    2.8344   -1.7150 H   0  0
    1.5667    1.1495   -1.9509 H   0  0
    3.6247    2.2203   -2.2736 H   0  0
    3.1644    3.6356   -1.2040 H   0  0
    2.3499    0.9011    1.8473 H   0  0
    2.3335   -0.1943    0.3640 H   0  0
   -5.9505    6.1756   -0.3479 H   0  0
   -5.7369    5.9948    1.4086 H   0  0
   -7.3527    6.5224    0.7589 H   0  0
  1  2  1  0
  2  3  1  0
  3  8  2  0
  3  4  1  0
  4  5  2  0
  5  6  1  0
  5 25  1  0
  6  7  2  0
  6 13  1  0
  7  8  1  0
  8  9  1  0
  9 10  1  0
 10 11  1  0
 10 12  1  0
 13 14  1  0
 14 15  1  0
 15 16  2  0
 15 17  1  0
 17 18  1  0
 18 24  1  0
 18 19  1  0
 19 20  1  0
 20 21  1  0
 21 22  2  0
 21 23  2  0
 21 24  1  0
 25 26  2  0
 25 27  1  0
 27 28  1  0
  1 29  1  0
  1 30  1  0
  1 31  1  0
  4 32  1  0
  7 33  1  0
 10 34  1  0
 13 35  1  0
 14 36  1  0
 14 37  1  0
 17 38  1  0
 18 39  1  0
 19 40  1  0
 19 41  1  0
 20 42  1  0
 20 43  1  0
 24 44  1  0
 24 45  1  0
 28 46  1  0
 28 47  1  0
 28 48  1  0
M  END
> <Name>
ZINC26224168

> <reference>
BDB50020387

> <quality>
0.695

> <status>
decoy

$$$$
ZINC09374656
  SciTegic06061311253D

 52 54  0  0  1  0            999 V2000
   -0.3784    2.5034   -0.1797 C   0  0
   -1.0312    2.6878    1.0781 O   0  0
   -1.3261    4.0518    1.3854 C   0  0
   -2.0098    4.1282    2.7263 C   0  0
   -2.2534    2.9735    3.4449 C   0  0
   -2.8805    3.0429    4.6750 C   0  0
   -3.2650    4.2675    5.1896 C   0  0
   -3.0237    5.4247    4.4751 C   0  0
   -2.3897    5.3582    3.2426 C   0  0
   -2.1461    6.4959    2.5403 O   0  0
   -3.1450    1.7819    5.4566 C   0  0  2  0  0  0
   -4.5923    1.3739    5.3068 C   0  0
   -5.2486    1.0488    4.1281 C   0  0
   -6.6452    0.8136    4.1369 C   0  0
   -7.2950   -0.2525    3.5457 C   0  0
   -8.6611   -0.0812    3.8072 C   0  0
   -8.7920    1.0595    4.5231 C   0  0
   -7.5797    1.5941    4.7193 O   0  0
   -4.5549    0.9566    2.9717 O   0  5
   -5.1375    1.3893    6.5946 C   0  0
   -6.2891    1.1159    6.8859 O   0  0
   -4.0714    1.7958    7.5472 C   0  0
   -4.2165    1.9081    8.7475 O   0  0
   -2.9235    2.0212    6.8859 N   0  0
   -1.6574    2.4377    7.4940 C   0  0
   -1.5880    3.9656    7.5317 C   0  0
   -2.6069    4.4675    8.3988 O   0  0
   -2.6294    5.8924    8.5055 C   0  0
   -3.7533    6.3151    9.4537 C   0  0
   -3.4680    5.8417   10.7715 O   0  0
    0.5542    3.0863   -0.1578 H   0  0
   -1.0329    2.9233   -0.9577 H   0  0
   -0.1707    1.4411   -0.3754 H   0  0
   -1.9890    4.4679    0.6125 H   0  0
   -0.3914    4.6309    1.4175 H   0  0
   -1.9481    1.9982    3.0379 H   0  0
   -3.7634    4.3201    6.1688 H   0  0
   -3.3339    6.3981    4.8828 H   0  0
   -2.5856    6.3536    1.6647 H   0  0
   -2.4703    1.0015    5.0748 H   0  0
   -6.8312   -1.0745    2.9806 H   0  0
   -9.4751   -0.7494    3.4897 H   0  0
   -9.7415    1.4802    4.8857 H   0  0
   -0.8180    2.0479    6.8995 H   0  0
   -1.5953    2.0430    8.5189 H   0  0
   -0.6020    4.2789    7.9055 H   0  0
   -1.7400    4.3658    6.5184 H   0  0
   -2.8033    6.3329    7.5127 H   0  0
   -1.6653    6.2460    8.8998 H   0  0
   -3.8286    7.4124    9.4671 H   0  0
   -4.7059    5.8864    9.1091 H   0  0
   -2.6113    6.2275   11.0835 H   0  0
  1  2  1  0
  2  3  1  0
  3  4  1  0
  4  9  2  0
  4  5  1  0
  5  6  2  0
  6  7  1  0
  6 11  1  0
  7  8  2  0
  8  9  1  0
  9 10  1  0
 11 24  1  0
 11 12  1  0
 12 13  2  0
 12 20  1  0
 13 14  1  0
 13 19  1  0
 14 18  1  0
 14 15  2  0
 15 16  1  0
 16 17  2  0
 17 18  1  0
 20 21  2  0
 20 22  1  0
 22 23  2  0
 22 24  1  0
 24 25  1  0
 25 26  1  0
 26 27  1  0
 27 28  1  0
 28 29  1  0
 29 30  1  0
  1 31  1  0
  1 32  1  0
  1 33  1  0
  3 34  1  0
  3 35  1  0
  5 36  1  0
  7 37  1  0
  8 38  1  0
 10 39  1  0
 11 40  1  0
 15 41  1  0
 16 42  1  0
 17 43  1  0
 25 44  1  0
 25 45  1  0
 26 46  1  0
 26 47  1  0
 28 48  1  0
 28 49  1  0
 29 50  1  0
 29 51  1  0
 30 52  1  0
M  CHG  1  19  -1
M  END
> <Name>
ZINC09374656

> <reference>
BDB50020387

> <quality>
0.693

> <status>
decoy

$$$$
ZINC25270030
  SciTegic06061311253D

 55 55  0  0  0  0            999 V2000
   -5.6473   -6.3887    2.2261 C   0  0
   -4.4557   -5.4317    2.2975 C   0  0
   -3.3170   -6.0155    1.5842 N   0  0
   -2.4253   -6.9533    2.2709 C   0  0
   -1.3564   -6.1721    3.0378 C   0  0
   -3.0379   -5.6154    0.0017 S   0  0
   -4.2830   -5.1907   -0.5355 O   0  0
   -2.2900   -6.6843   -0.5616 O   0  0
   -1.9812   -4.2054   -0.0005 C   0  0
   -2.3915   -2.8691    0.0151 C   0  0
   -1.2482   -2.0966    0.0027 C   0  0
   -0.1704   -2.9534   -0.0117 N   0  0
   -0.6265   -4.2236   -0.0135 C   0  0
   -1.1914   -0.6328    0.0100 C   0  0
   -2.2202    0.0157    0.0233 O   0  0
    0.0021   -0.0041    0.0020 O   0  0
   -0.0176    1.4478    0.0100 C   0  0
    1.3962    1.9694   -0.0007 C   0  0
    2.3286    1.1939   -0.0138 O   0  0
    1.6245    3.2977    0.0043 N   0  0
    2.9989    3.8048   -0.0061 C   0  0
    2.9781    5.3346    0.0023 C   0  0
    4.4135    5.8642   -0.0086 C   0  0
    4.3931    7.3710   -0.0003 C   0  0
    3.3386    7.9608    0.0129 O   0  0
    5.5463    8.0579   -0.0076 O   0  0
    5.4506    9.5067    0.0011 C   0  0
    6.8563   10.1107   -0.0091 C   0  0
   -5.3768   -7.3480    2.6914 H   0  0
   -5.9215   -6.5566    1.1741 H   0  0
   -6.5027   -5.9509    2.7615 H   0  0
   -4.7269   -4.4728    1.8317 H   0  0
   -4.1814   -5.2637    3.3494 H   0  0
   -3.0082   -7.5646    2.9756 H   0  0
   -1.9403   -7.6079    1.5318 H   0  0
   -1.8396   -5.5177    3.7782 H   0  0
   -0.7725   -5.5603    2.3344 H   0  0
   -0.6865   -6.8757    3.5537 H   0  0
   -3.4286   -2.5030    0.0337 H   0  0
    0.8202   -2.6715   -0.0198 H   0  0
    0.0003   -5.1275   -0.0238 H   0  0
   -0.5321    1.8037    0.9148 H   0  0
   -0.5491    1.8124   -0.8814 H   0  0
    0.8327    3.9563    0.0154 H   0  0
    3.5309    3.4410    0.8853 H   0  0
    3.5147    3.4508   -0.9109 H   0  0
    2.4466    5.6991   -0.8891 H   0  0
    2.4636    5.6905    0.9071 H   0  0
    4.9293    5.5102   -0.9134 H   0  0
    4.9455    5.5003    0.8828 H   0  0
    4.9180    9.8347    0.9059 H   0  0
    4.9010    9.8434   -0.8903 H   0  0
    7.3901    9.7846   -0.9140 H   0  0
    7.4072    9.7750    0.8818 H   0  0
    6.7845   11.2083   -0.0025 H   0  0
  1  2  1  0
  2  3  1  0
  3  4  1  0
  3  6  1  0
  4  5  1  0
  6  7  2  0
  6  8  2  0
  6  9  1  0
  9 13  2  0
  9 10  1  0
 10 11  2  0
 11 12  1  0
 11 14  1  0
 12 13  1  0
 14 15  2  0
 14 16  1  0
 16 17  1  0
 17 18  1  0
 18 19  2  0
 18 20  1  0
 20 21  1  0
 21 22  1  0
 22 23  1  0
 23 24  1  0
 24 25  2  0
 24 26  1  0
 26 27  1  0
 27 28  1  0
  1 29  1  0
  1 30  1  0
  1 31  1  0
  2 32  1  0
  2 33  1  0
  4 34  1  0
  4 35  1  0
  5 36  1  0
  5 37  1  0
  5 38  1  0
 10 39  1  0
 12 40  1  0
 13 41  1  0
 17 42  1  0
 17 43  1  0
 20 44  1  0
 21 45  1  0
 21 46  1  0
 22 47  1  0
 22 48  1  0
 23 49  1  0
 23 50  1  0
 27 51  1  0
 27 52  1  0
 28 53  1  0
 28 54  1  0
 28 55  1  0
M  END
> <Name>
ZINC25270030

> <reference>
BDB50020387

> <quality>
0.692

> <status>
decoy

$$$$
ZINC29350431
  SciTegic06061311253D

 57 58  0  0  1  0            999 V2000
   -4.4087    9.4123    6.7067 C   0  0
   -4.9632    8.6956    7.9109 C   0  0
   -6.0247    9.0394    8.3855 O   0  0
   -4.2163    7.5784    8.5107 C   0  0
   -4.7275    6.9107    9.6282 C   0  0
   -4.0219    5.8646   10.1842 C   0  0
   -2.8110    5.4746    9.6389 C   0  0
   -2.2959    6.1337    8.5363 C   0  0
   -2.9918    7.1786    7.9659 C   0  0
   -1.9171    4.1366   10.3568 S   0  0
   -2.3418    4.0438   11.7096 O   0  0
   -0.5545    4.3191    9.9969 O   0  0
   -2.4235    2.7504    9.6055 N   0  0
   -3.5579    1.9970   10.1457 C   0  0
   -1.7371    2.2775    8.4008 C   0  0
   -2.4646    2.7771    7.1793 C   0  0
   -3.4586    3.4609    7.3029 O   0  0
   -2.0107    2.4641    5.9495 N   0  0
   -2.7180    2.9497    4.7620 C   0  0
   -2.0119    2.4633    3.5227 C   0  0
   -2.3665    1.2538    2.9550 C   0  0
   -1.7194    0.8079    1.8177 C   0  0
   -0.7181    1.5718    1.2479 C   0  0
   -0.3599    2.7788    1.8186 C   0  0
   -1.0099    3.2267    2.9534 C   0  0
   -0.0127    1.0858    0.0080 C   0  0
   -0.7232    1.5724   -1.1821 N   0  3
    0.0585    1.3230   -2.4006 C   0  0
   -2.0591    0.9694   -1.2810 C   0  0
   -4.3400   10.4701    7.0006 H   0  0
   -5.1863    9.3309    5.9330 H   0  0
   -3.4420    9.0099    6.3697 H   0  0
   -5.6899    7.2192   10.0624 H   0  0
   -4.4224    5.3387   11.0634 H   0  0
   -1.3289    5.8232    8.1139 H   0  0
   -2.5849    7.6963    7.0847 H   0  0
   -4.3785    2.7283   10.1882 H   0  0
   -3.2756    1.7839   11.1873 H   0  0
   -3.8241    1.0904    9.5826 H   0  0
   -1.7225    1.1776    8.3936 H   0  0
   -0.7050    2.6580    8.3934 H   0  0
   -1.1665    1.8834    5.8445 H   0  0
   -3.7500    2.5691    4.7686 H   0  0
   -2.7328    4.0496    4.7668 H   0  0
   -3.1636    0.6462    3.4082 H   0  0
   -2.0013   -0.1547    1.3662 H   0  0
    0.4424    3.3829    1.3697 H   0  0
   -0.7298    4.1906    3.4034 H   0  0
    0.0026   -0.0141    0.0008 H   0  0
    1.0191    1.4670   -0.0002 H   0  0
   -0.8421    2.5909   -1.0853 H   0  0
    0.2346    0.2413   -2.4947 H   0  0
    1.0261    1.8390   -2.3140 H   0  0
   -0.4852    1.6921   -3.2827 H   0  0
   -2.6334    1.2279   -0.3791 H   0  0
   -1.9522   -0.1239   -1.3385 H   0  0
   -2.5789    1.3425   -2.1758 H   0  0
  1  2  1  0
  2  3  2  0
  2  4  1  0
  4  9  2  0
  4  5  1  0
  5  6  2  0
  6  7  1  0
  7  8  2  0
  7 10  1  0
  8  9  1  0
 10 11  2  0
 10 12  2  0
 10 13  1  0
 13 14  1  0
 13 15  1  0
 15 16  1  0
 16 17  2  0
 16 18  1  0
 18 19  1  0
 19 20  1  0
 20 25  2  0
 20 21  1  0
 21 22  2  0
 22 23  1  0
 23 24  2  0
 23 26  1  0
 24 25  1  0
 26 27  1  0
 27 28  1  0
 27 29  1  0
  1 30  1  0
  1 31  1  0
  1 32  1  0
  5 33  1  0
  6 34  1  0
  8 35  1  0
  9 36  1  0
 14 37  1  0
 14 38  1  0
 14 39  1  0
 15 40  1  0
 15 41  1  0
 18 42  1  0
 19 43  1  0
 19 44  1  0
 21 45  1  0
 22 46  1  0
 24 47  1  0
 25 48  1  0
 26 49  1  0
 26 50  1  0
 27 51  1  0
 28 52  1  0
 28 53  1  0
 28 54  1  0
 29 55  1  0
 29 56  1  0
 29 57  1  0
M  CHG  1  27   1
M  END
> <Name>
ZINC29350431

> <reference>
BDB50020387

> <quality>
0.690

> <status>
decoy

$$$$
ZINC11538043
  SciTegic06061311253D

 57 58  0  0  0  0            999 V2000
    7.5513   -4.4081  -11.1725 C   0  0
    8.6877   -4.3680  -10.1488 C   0  0
    8.1506   -4.1044   -8.8511 O   0  0
    9.0341   -4.0358   -7.8197 C   0  0
   10.3890   -4.2188   -8.0543 C   0  0
   11.2897   -4.1498   -7.0081 C   0  0
   10.8415   -3.8980   -5.7218 C   0  0
    9.4818   -3.7138   -5.4830 C   0  0
    8.5794   -3.7888   -6.5336 C   0  0
    9.0257   -3.4590   -4.1829 N   0  0
    7.8600   -2.8099   -3.9928 C   0  0
    7.2555   -2.3582   -4.9424 O   0  0
    7.3075   -2.6453   -2.6004 C   0  0
    6.0526   -1.9175   -2.6605 O   0  0
    5.4263   -1.6854   -1.4962 C   0  0
    5.9107   -2.0775   -0.4611 O   0  0
    4.1190   -0.9359   -1.4801 C   0  0
    3.6219   -0.8085   -0.0387 C   0  0
    2.3147   -0.0589   -0.0225 C   0  0
    1.1288   -0.7289   -0.0241 C   0  0
   -0.0201   -0.0488   -0.0092 N   0  0
   -0.0401    1.2573    0.0070 C   0  0
    1.0979    1.9788    0.0094 N   0  0
    2.2932    1.3510   -0.0051 C   0  0
    3.3324    1.9898   -0.0027 O   0  0
   -1.3661    1.9734    0.0169 C   0  0
    1.1136   -2.2357   -0.0420 C   0  0
   11.7287   -3.8311   -4.6925 O   0  0
   13.1076   -4.0298   -5.0106 C   0  0
   13.9462   -3.9189   -3.7358 C   0  0
    7.0305   -3.4393  -11.1819 H   0  0
    6.8407   -5.2031  -10.9021 H   0  0
    7.9641   -4.6110  -12.1717 H   0  0
    9.2077   -5.3373  -10.1399 H   0  0
    9.3983   -3.5731  -10.4191 H   0  0
   10.7473   -4.4192   -9.0748 H   0  0
   12.3636   -4.2950   -7.1972 H   0  0
    7.5040   -3.6524   -6.3465 H   0  0
    9.5813   -3.7678   -3.3724 H   0  0
    7.1352   -3.6361   -2.1547 H   0  0
    8.0259   -2.0856   -1.9835 H   0  0
    4.2660    0.0673   -1.9067 H   0  0
    3.3742   -1.4827   -2.0770 H   0  0
    3.4742   -1.8114    0.3883 H   0  0
    4.3651   -0.2610    0.5596 H   0  0
    1.0560    3.0079    0.0223 H   0  0
   -1.9001    1.5927    0.9000 H   0  0
   -1.9015    1.6147   -0.8746 H   0  0
   -1.2685    3.0690    0.0304 H   0  0
    1.7017   -2.5385    0.8369 H   0  0
    1.6922   -2.5173   -0.9341 H   0  0
    0.1028   -2.6697   -0.0417 H   0  0
   13.2421   -5.0285   -5.4516 H   0  0
   13.4330   -3.2643   -5.7304 H   0  0
   13.6228   -4.6845   -3.0152 H   0  0
   13.8128   -2.9206   -3.2936 H   0  0
   15.0078   -4.0718   -3.9800 H   0  0
  1  2  1  0
  2  3  1  0
  3  4  1  0
  4  9  2  0
  4  5  1  0
  5  6  2  0
  6  7  1  0
  7  8  2  0
  7 28  1  0
  8  9  1  0
  8 10  1  0
 10 11  1  0
 11 12  2  0
 11 13  1  0
 13 14  1  0
 14 15  1  0
 15 16  2  0
 15 17  1  0
 17 18  1  0
 18 19  1  0
 19 24  1  0
 19 20  2  0
 20 21  1  0
 20 27  1  0
 21 22  2  0
 22 23  1  0
 22 26  1  0
 23 24  1  0
 24 25  2  0
 28 29  1  0
 29 30  1  0
  1 31  1  0
  1 32  1  0
  1 33  1  0
  2 34  1  0
  2 35  1  0
  5 36  1  0
  6 37  1  0
  9 38  1  0
 10 39  1  0
 13 40  1  0
 13 41  1  0
 17 42  1  0
 17 43  1  0
 18 44  1  0
 18 45  1  0
 23 46  1  0
 26 47  1  0
 26 48  1  0
 26 49  1  0
 27 50  1  0
 27 51  1  0
 27 52  1  0
 29 53  1  0
 29 54  1  0
 30 55  1  0
 30 56  1  0
 30 57  1  0
M  END
> <Name>
ZINC11538043

> <reference>
BDB50020387

> <quality>
0.689

> <status>
decoy

$$$$
ZINC22093017
  SciTegic06061311253D

 58 58  0  0  1  0            999 V2000
   -9.1364    8.0325    0.5541 C   0  0
   -7.7699    7.9593    1.1852 C   0  0
   -6.7423    7.2226    0.7318 C   0  0
   -5.6240    7.4582    1.6560 C   0  0
   -6.0982    8.3512    2.6033 C   0  0
   -7.3786    8.6367    2.3042 N   0  0
   -8.2326    9.5472    3.0711 C   0  0
   -8.0922   10.9663    2.5168 C   0  0
   -8.9252   11.8544    3.2648 O   0  0
   -8.8680   13.2131    2.8258 C   0  0
   -5.3159    8.9066    3.7654 C   0  0
   -4.3254    6.8927    1.5886 C   0  0
   -4.0982    5.7751    0.8083 C   0  0
   -5.1975    5.1013    0.1852 C   0  0
   -6.0695    4.5668   -0.3091 N   0  0
   -2.7301    5.2787    0.6182 C   0  0
   -1.7967    5.8508    1.1473 O   0  0
   -2.5084    4.1880   -0.1433 O   0  0
   -1.1303    3.7536   -0.2872 C   0  0  2  0  0  0
   -0.5027    4.4422   -1.5008 C   0  0
   -1.0923    2.2597   -0.4819 C   0  0
   -2.1262    1.6358   -0.5885 O   0  0
    0.0913    1.6174   -0.5374 N   0  0
    0.1253    0.2813   -0.7115 C   0  0
   -0.9113   -0.3448   -0.8134 O   0  0
    1.3090   -0.3603   -0.7726 N   0  0
    1.3460   -1.8126   -0.9618 C   0  0
    2.8007   -2.2856   -0.9956 C   0  0
    3.4063   -2.0547    0.2779 O   0  0
    4.7735   -2.4634    0.3540 C   0  0
   -9.2712    9.1114    0.3875 H   0  0
   -9.8047    7.7686    1.3870 H   0  0
   -9.2864    7.4209   -0.3478 H   0  0
   -6.7385    6.5720   -0.1552 H   0  0
   -9.2808    9.2239    2.9885 H   0  0
   -7.9274    9.5353    4.1278 H   0  0
   -7.0443   11.2904    2.5995 H   0  0
   -8.3981   10.9804    1.4603 H   0  0
   -9.1659   13.2323    1.7671 H   0  0
   -7.8206   13.5412    2.8985 H   0  0
   -9.5228   13.8603    3.4277 H   0  0
   -4.4315    9.3376    3.2734 H   0  0
   -4.9625    7.9963    4.2719 H   0  0
   -5.8484    9.6081    4.4245 H   0  0
   -3.4989    7.3436    2.1574 H   0  0
   -0.5654    4.0199    0.6183 H   0  0
   -0.5298    5.5328   -1.3596 H   0  0
   -1.0667    4.1763   -2.4070 H   0  0
    0.5413    4.1136   -1.6104 H   0  0
    0.9697    2.1475   -0.4468 H   0  0
    2.1875    0.1704   -0.6863 H   0  0
    0.8546   -2.0725   -1.9110 H   0  0
    0.8203   -2.3044   -0.1300 H   0  0
    2.8316   -3.3607   -1.2262 H   0  0
    3.3506   -1.7288   -1.7687 H   0  0
    5.3272   -1.9150   -0.4223 H   0  0
    4.8124   -3.5368    0.1165 H   0  0
    5.1990   -2.2678    1.3493 H   0  0
  1  2  1  0
  2  6  1  0
  2  3  2  0
  3  4  1  0
  4  5  2  0
  4 12  1  0
  5  6  1  0
  5 11  1  0
  6  7  1  0
  7  8  1  0
  8  9  1  0
  9 10  1  0
 12 13  2  0
 13 14  1  0
 13 16  1  0
 14 15  3  0
 16 17  2  0
 16 18  1  0
 18 19  1  0
 19 20  1  0
 19 21  1  0
 21 22  2  0
 21 23  1  0
 23 24  1  0
 24 25  2  0
 24 26  1  0
 26 27  1  0
 27 28  1  0
 28 29  1  0
 29 30  1  0
  1 31  1  0
  1 32  1  0
  1 33  1  0
  3 34  1  0
  7 35  1  0
  7 36  1  0
  8 37  1  0
  8 38  1  0
 10 39  1  0
 10 40  1  0
 10 41  1  0
 11 42  1  0
 11 43  1  0
 11 44  1  0
 12 45  1  0
 19 46  1  0
 20 47  1  0
 20 48  1  0
 20 49  1  0
 23 50  1  0
 26 51  1  0
 27 52  1  0
 27 53  1  0
 28 54  1  0
 28 55  1  0
 30 56  1  0
 30 57  1  0
 30 58  1  0
M  END
> <Name>
ZINC22093017

> <reference>
BDB50020387

> <quality>
0.688

> <status>
decoy

$$$$
ZINC25800537
  SciTegic06061311253D

 55 56  0  0  1  0            999 V2000
    0.3607    2.0554   -1.5023 C   0  0
    0.4432    1.5669   -0.0547 C   0  0
    0.6560    0.0519   -0.0390 C   0  0  1  0  0  0
    2.0261   -0.2769   -0.6354 C   0  0
    0.5917   -0.4572    1.4024 C   0  0  1  0  0  0
    0.7325   -1.9576    1.4120 C   0  0
    1.8059   -2.4622    1.6423 O   0  0
   -0.3345   -2.7334    1.1646 O   0  0
   -0.1252   -4.1700    1.1902 C   0  0
    1.6798    0.1404    2.1803 N   0  0
    1.5619    0.2671    3.5169 C   0  0
    0.5550   -0.1135    4.0757 O   0  0
    2.6812    0.8818    4.3172 C   0  0
    2.3153    0.9055    5.7221 O   0  0
    3.2137    1.4278    6.5793 C   0  0
    4.2737    1.8519    6.1644 O   0  0
    2.9098    1.4849    8.0239 C   0  0
    1.6899    1.0035    8.5035 C   0  0
    1.4152    1.0541    9.8542 C   0  0
    2.3404    1.5914   10.7320 C   0  0
    3.5484    2.0757   10.2628 C   0  0
    3.8386    2.0256    8.9150 C   0  0
    4.5497    2.6590   11.2263 C   0  0
    4.3086    4.0969   11.3702 N   0  0
    4.8851    5.0418   10.6015 C   0  0
    5.6712    4.8691    9.6949 O   0  0
    4.3447    6.3655   11.1051 C   0  0
    3.4478    5.9766   12.2071 N   0  0
    3.4932    4.6344   12.2847 C   0  0
    2.8639    3.9828   13.0950 O   0  0
   -0.4818    1.5623   -2.0093 H   0  0
    1.2966    1.8119   -2.0264 H   0  0
    0.2077    3.1446   -1.5143 H   0  0
   -0.4927    1.8104    0.4695 H   0  0
    1.2861    2.0603    0.4514 H   0  0
   -0.1298   -0.4349   -0.6352 H   0  0
    2.8127    0.2093   -0.0397 H   0  0
    2.0733    0.0885   -1.6719 H   0  0
    2.1797   -1.3661   -0.6244 H   0  0
   -0.3743   -0.1768    1.8476 H   0  0
    0.2760   -4.4071    2.1866 H   0  0
    0.6604   -4.3821    0.4500 H   0  0
   -1.0445   -4.7358    0.9785 H   0  0
    2.5349    0.4637    1.7058 H   0  0
    3.5959    0.2848    4.1871 H   0  0
    2.8613    1.9094    3.9686 H   0  0
    0.9497    0.5849    7.8057 H   0  0
    0.4586    0.6665   10.2345 H   0  0
    2.1143    1.6336   11.8077 H   0  0
    4.7996    2.4108    8.5433 H   0  0
    5.5676    2.4952   10.8429 H   0  0
    4.4438    2.1701   12.2060 H   0  0
    5.1660    6.9905   11.4856 H   0  0
    3.7748    6.8705   10.3112 H   0  0
    2.8939    6.6091   12.8022 H   0  0
  1  2  1  0
  2  3  1  0
  3  4  1  0
  3  5  1  0
  5  6  1  0
  5 10  1  0
  6  7  2  0
  6  8  1  0
  8  9  1  0
 10 11  1  0
 11 12  2  0
 11 13  1  0
 13 14  1  0
 14 15  1  0
 15 16  2  0
 15 17  1  0
 17 22  2  0
 17 18  1  0
 18 19  2  0
 19 20  1  0
 20 21  2  0
 21 22  1  0
 21 23  1  0
 23 24  1  0
 24 29  1  0
 24 25  1  0
 25 26  2  0
 25 27  1  0
 27 28  1  0
 28 29  1  0
 29 30  2  0
  1 31  1  0
  1 32  1  0
  1 33  1  0
  2 34  1  0
  2 35  1  0
  3 36  1  0
  4 37  1  0
  4 38  1  0
  4 39  1  0
  5 40  1  0
  9 41  1  0
  9 42  1  0
  9 43  1  0
 10 44  1  0
 13 45  1  0
 13 46  1  0
 18 47  1  0
 19 48  1  0
 20 49  1  0
 22 50  1  0
 23 51  1  0
 23 52  1  0
 27 53  1  0
 27 54  1  0
 28 55  1  0
M  END
> <Name>
ZINC25800537

> <reference>
BDB50020387

> <quality>
0.685

> <status>
decoy

$$$$
ZINC27568060
  SciTegic06061311253D

 58 60  0  0  0  0            999 V2000
   -2.3720    4.3933    8.7268 C   0  0
   -1.7143    3.8427    7.4599 C   0  0
   -2.5502    2.8340    6.8891 O   0  0
   -2.1086    2.2384    5.7502 C   0  0
   -2.8700    1.2507    5.1423 C   0  0
   -2.4190    0.6472    3.9844 C   0  0
   -1.2100    1.0267    3.4312 C   0  0
   -0.4467    2.0068    4.0382 C   0  0
   -0.8958    2.6174    5.1932 C   0  0
   -0.7205    0.3666    2.1680 C   0  0
   -1.2093    1.1160    1.0029 N   0  0
   -0.5642    0.6488   -0.2321 C   0  0
   -1.1563    1.3972   -1.4288 C   0  0
   -0.9563    2.8417   -1.2475 N   0  0
   -1.6018    3.3090   -0.0128 C   0  0
   -1.0098    2.5607    1.1839 C   0  0
   -1.4446    3.5911   -2.4129 C   0  0
   -0.5924    3.2657   -3.6124 C   0  0
    0.3969    2.5760   -3.4843 O   0  0
   -0.9296    3.7412   -4.8276 N   0  0
   -0.1011    3.4249   -5.9937 C   0  0
   -0.6914    4.0724   -7.2198 C   0  0
   -0.1026    5.2009   -7.7572 C   0  0
   -0.6411    5.7928   -8.8845 C   0  0
   -1.7756    5.2630   -9.4715 C   0  0
   -2.3711    4.1380   -8.9351 C   0  0
   -1.8297    3.5393   -7.8065 C   0  0
   -2.4140    2.4327   -7.2765 O   0  5
   -0.0056    6.9988   -9.4608 N   0  0
   -0.4819    7.5238  -10.4513 O   0  0
    0.9936    7.4663   -8.9446 O   0  0
   -2.5105    3.5787    9.4529 H   0  0
   -3.3501    4.8285    8.4739 H   0  0
   -1.7290    5.1699    9.1667 H   0  0
   -1.5765    4.6578    6.7342 H   0  0
   -0.7362    3.4075    7.7127 H   0  0
   -3.8319    0.9484    5.5819 H   0  0
   -3.0223   -0.1360    3.5021 H   0  0
    0.5190    2.3006    3.6011 H   0  0
   -0.2923    3.4034    5.6708 H   0  0
   -1.0968   -0.6661    2.1230 H   0  0
    0.3794    0.3567    2.1618 H   0  0
   -0.7384   -0.4306   -0.3527 H   0  0
    0.5172    0.8427   -0.1774 H   0  0
   -0.6537    1.0706   -2.3512 H   0  0
   -2.2328    1.1827   -1.5010 H   0  0
   -1.4269    4.3884    0.1071 H   0  0
   -2.6833    3.1157   -0.0670 H   0  0
   -1.5127    2.8880    2.1059 H   0  0
    0.0662    2.7775    1.2554 H   0  0
   -2.4882    3.3107   -2.6183 H   0  0
   -1.3887    4.6700   -2.2062 H   0  0
   -1.7698    4.3270   -4.9364 H   0  0
    0.9184    3.8056   -5.8335 H   0  0
   -0.0673    2.3347   -6.1360 H   0  0
    0.7954    5.6287   -7.2876 H   0  0
   -2.2042    5.7379  -10.3664 H   0  0
   -3.2737    3.7171   -9.4022 H   0  0
  1  2  1  0
  2  3  1  0
  3  4  1  0
  4  9  2  0
  4  5  1  0
  5  6  2  0
  6  7  1  0
  7  8  2  0
  7 10  1  0
  8  9  1  0
 10 11  1  0
 11 16  1  0
 11 12  1  0
 12 13  1  0
 13 14  1  0
 14 15  1  0
 14 17  1  0
 15 16  1  0
 17 18  1  0
 18 19  2  0
 18 20  1  0
 20 21  1  0
 21 22  1  0
 22 27  2  0
 22 23  1  0
 23 24  2  0
 24 25  1  0
 24 29  1  0
 25 26  2  0
 26 27  1  0
 27 28  1  0
 29 30  2  0
 29 31  2  0
  1 32  1  0
  1 33  1  0
  1 34  1  0
  2 35  1  0
  2 36  1  0
  5 37  1  0
  6 38  1  0
  8 39  1  0
  9 40  1  0
 10 41  1  0
 10 42  1  0
 12 43  1  0
 12 44  1  0
 13 45  1  0
 13 46  1  0
 15 47  1  0
 15 48  1  0
 16 49  1  0
 16 50  1  0
 17 51  1  0
 17 52  1  0
 20 53  1  0
 21 54  1  0
 21 55  1  0
 23 56  1  0
 25 57  1  0
 26 58  1  0
M  CHG  1  28  -1
M  END
> <Name>
ZINC27568060

> <reference>
BDB50021148

> <quality>
0.902

> <status>
decoy

$$$$
ZINC31522752
  SciTegic06061311253D

 55 56  0  0  0  0            999 V2000
   -2.0066    6.9754    1.7816 C   0  0
   -2.6495    5.8196    2.5509 C   0  0  2  0  0  0
   -2.9182    6.2538    3.9931 C   0  0
   -1.7040    4.6167    2.5481 C   0  0
   -3.9132    5.4489    1.9090 N   0  0
   -3.9054    4.7478    0.4088 S   0  0
   -3.0339    5.5269   -0.3991 O   0  0
   -5.2638    4.5174    0.0612 O   0  0
   -3.1532    3.1634    0.5780 C   0  0
   -3.7746    2.0376    0.9933 C   0  0
   -2.8194    1.0092    0.9786 C   0  0
   -1.6468    1.5686    0.5586 C   0  0
   -1.8712    2.8768    0.3171 O   0  0
   -0.3687    0.8686    0.3931 C   0  0
   -0.2889   -0.3197    0.6435 O   0  0
    0.7160    1.5400   -0.0418 N   0  0
    1.9912    0.8394   -0.2129 C   0  0
    3.0348    1.8088   -0.7051 C   0  0
    3.3646    1.8456   -2.0474 C   0  0
    4.3237    2.7354   -2.5018 C   0  0
    4.9556    3.5933   -1.6065 C   0  0
    4.6238    3.5555   -0.2624 C   0  0
    3.6589    2.6665    0.1879 C   0  0
    3.3286    2.6326    1.5065 O   0  0
    4.0111    3.5441    2.3699 C   0  0
    5.8979    4.4674   -2.0508 O   0  0
    6.5050    5.3178   -1.0760 C   0  0
    4.6483    2.7704   -3.8228 O   0  0
    3.9602    1.8613   -4.6842 C   0  0
   -1.0575    7.2544    2.2626 H   0  0
   -2.6858    7.8407    1.7827 H   0  0
   -1.8131    6.6639    0.7445 H   0  0
   -3.5982    7.1185    3.9961 H   0  0
   -1.9699    6.5322    4.4760 H   0  0
   -3.3804    5.4233    4.5468 H   0  0
   -0.7548    4.8939    3.0300 H   0  0
   -1.5105    4.3035    1.5115 H   0  0
   -2.1656    3.7853    3.1010 H   0  0
   -4.8065    5.6244    2.3908 H   0  0
   -4.8304    1.9446    1.2875 H   0  0
   -2.9837   -0.0434    1.2524 H   0  0
    0.6484    2.5457   -0.2539 H   0  0
    1.8699    0.0287   -0.9464 H   0  0
    2.3098    0.4168    0.7514 H   0  0
    2.8648    1.1676   -2.7549 H   0  0
    5.1250    4.2299    0.4475 H   0  0
    3.8201    4.5508    1.9699 H   0  0
    5.0847    3.3336    2.2553 H   0  0
    3.6909    3.4574    3.4187 H   0  0
    6.9486    4.6537   -0.3196 H   0  0
    5.6854    5.8741   -0.5976 H   0  0
    7.2550    5.9952   -1.5103 H   0  0
    2.8876    2.0737   -4.5644 H   0  0
    4.1511    0.8537   -4.2863 H   0  0
    4.2757    1.9487   -5.7343 H   0  0
  1  2  1  0
  2  3  1  0
  2  4  1  0
  2  5  1  0
  5  6  1  0
  6  7  2  0
  6  8  2  0
  6  9  1  0
  9 13  1  0
  9 10  2  0
 10 11  1  0
 11 12  2  0
 12 13  1  0
 12 14  1  0
 14 15  2  0
 14 16  1  0
 16 17  1  0
 17 18  1  0
 18 23  2  0
 18 19  1  0
 19 20  2  0
 20 21  1  0
 20 28  1  0
 21 22  2  0
 21 26  1  0
 22 23  1  0
 23 24  1  0
 24 25  1  0
 26 27  1  0
 28 29  1  0
  1 30  1  0
  1 31  1  0
  1 32  1  0
  3 33  1  0
  3 34  1  0
  3 35  1  0
  4 36  1  0
  4 37  1  0
  4 38  1  0
  5 39  1  0
 10 40  1  0
 11 41  1  0
 16 42  1  0
 17 43  1  0
 17 44  1  0
 19 45  1  0
 22 46  1  0
 25 47  1  0
 25 48  1  0
 25 49  1  0
 27 50  1  0
 27 51  1  0
 27 52  1  0
 29 53  1  0
 29 54  1  0
 29 55  1  0
M  END
> <Name>
ZINC31522752

> <reference>
BDB50021148

> <quality>
0.819

> <status>
decoy

$$$$
ZINC27067228
  SciTegic06061311253D

 52 54  0  0  1  0            999 V2000
    0.3421  -10.7909   -0.8914 C   0  0
    0.0581   -9.3901   -1.4373 C   0  0
   -1.0534   -8.7372   -0.6132 C   0  0  2  0  0  0
   -1.2905   -7.3086   -1.0610 C   0  0
   -1.6513   -6.9349   -2.1564 O   0  0
   -1.0151   -6.5402    0.0114 N   0  0
   -0.6480   -7.2775    1.0656 C   0  0
   -0.3544   -6.8094    2.1482 O   0  0
   -0.6401   -8.5950    0.7936 N   0  5
   -1.1077   -5.1423    0.0225 N   0  0
    0.0119   -4.3925   -0.0068 C   0  0
    1.0995   -4.9280   -0.0428 O   0  0
   -0.0877   -2.8889    0.0053 C   0  0
    1.5744   -2.1738   -0.0406 S   0  0
    1.1704   -0.4589   -0.0181 C   0  0
   -0.0389    0.0574    0.0219 N   0  0
    0.0295    1.3407    0.0278 N   0  0
    1.2852    1.7224   -0.0080 C   0  0
    2.0538    0.5811   -0.0385 N   0  0
    3.5158    0.4997   -0.0831 C   0  0
    3.9751    0.3649   -1.5363 C   0  0
    5.4012    0.2854   -1.5798 O   0  0
    5.9362    0.1568   -2.8986 C   0  0
    1.7800    3.1148   -0.0144 C   0  0
    0.9602    4.1719    0.3998 C   0  0
    1.4644    5.4552    0.3821 C   0  0
    2.6961    5.6939   -0.0271 N   0  0
    3.5000    4.7281   -0.4304 C   0  0
    3.0798    3.4148   -0.4404 C   0  0
   -2.3454   -9.5503   -0.7151 C   0  0
   -0.5696  -11.4029   -0.9569 H   0  0
    0.6598  -10.7187    0.1592 H   0  0
    1.1412  -11.2609   -1.4835 H   0  0
   -0.2596   -9.4623   -2.4879 H   0  0
    0.9702   -8.7788   -1.3712 H   0  0
   -2.0314   -4.6876    0.0531 H   0  0
   -0.6557   -2.5518   -0.8743 H   0  0
   -0.6016   -2.5617    0.9212 H   0  0
    3.9475    1.4121    0.3542 H   0  0
    3.8530   -0.3766    0.4900 H   0  0
    3.5440   -0.5475   -1.9741 H   0  0
    3.6398    1.2410   -2.1108 H   0  0
    5.5976    1.0270   -3.4801 H   0  0
    5.5027   -0.7501   -3.3453 H   0  0
    7.0346    0.0991   -2.8854 H   0  0
   -0.0703    3.9814    0.7342 H   0  0
    0.8313    6.2914    0.7136 H   0  0
    4.5192    4.9741   -0.7631 H   0  0
    3.7553    2.6150   -0.7779 H   0  0
   -2.1598  -10.5677   -0.3403 H   0  0
   -2.6536   -9.6040   -1.7697 H   0  0
   -3.1378   -9.0732   -0.1197 H   0  0
  1  2  1  0
  2  3  1  0
  3  9  1  0
  3  4  1  0
  3 30  1  0
  4  5  2  0
  4  6  1  0
  6  7  1  0
  6 10  1  0
  7  8  2  0
  7  9  1  0
 10 11  1  0
 11 12  2  0
 11 13  1  0
 13 14  1  0
 14 15  1  0
 15 19  1  0
 15 16  2  0
 16 17  1  0
 17 18  2  0
 18 19  1  0
 18 24  1  0
 19 20  1  0
 20 21  1  0
 21 22  1  0
 22 23  1  0
 24 29  2  0
 24 25  1  0
 25 26  2  0
 26 27  1  0
 27 28  2  0
 28 29  1  0
  1 31  1  0
  1 32  1  0
  1 33  1  0
  2 34  1  0
  2 35  1  0
 10 36  1  0
 13 37  1  0
 13 38  1  0
 20 39  1  0
 20 40  1  0
 21 41  1  0
 21 42  1  0
 23 43  1  0
 23 44  1  0
 23 45  1  0
 25 46  1  0
 26 47  1  0
 28 48  1  0
 29 49  1  0
 30 50  1  0
 30 51  1  0
 30 52  1  0
M  CHG  1   9  -1
M  END
> <Name>
ZINC27067228

> <reference>
BDB50021148

> <quality>
0.809

> <status>
decoy

$$$$
ZINC29740578
  SciTegic06061311253D

 49 50  0  0  0  0            999 V2000
    3.0674    1.3455    0.3732 C   0  0
    1.5823    1.0343    0.1780 C   0  0
    1.3835   -0.4040    0.1898 O   0  0
    0.1209   -0.8490    0.0287 C   0  0
   -0.7892   -0.0558   -0.1176 O   0  0
   -0.1549   -2.2899    0.0301 C   0  0
   -0.4459   -2.9635    1.2071 C   0  0
   -0.6972   -4.3059    1.1257 C   0  0
   -0.5114   -4.6350   -0.6165 S   0  0
   -0.1279   -3.0328   -1.1550 C   0  0
    0.1392   -2.5969   -2.4382 N   0  0
    0.1185   -3.4701   -3.4646 C   0  0
   -0.1344   -4.6386   -3.2615 O   0  0
    0.4099   -2.9945   -4.8646 C   0  0
    0.3059   -4.3918   -6.0103 S   0  0
    0.6794   -3.5735   -7.5254 C   0  0
    0.9432   -2.2861   -7.6647 N   0  0
    1.1942   -2.0087   -8.9480 C   0  0
    1.4823   -0.9124   -9.3941 O   0  5
    1.0755   -3.1436   -9.6671 N   0  0
    0.7336   -4.1598   -8.7595 N   0  3
    0.5012   -5.5724   -9.0706 C   0  0
   -1.0298   -5.2408    2.2026 C   0  0
   -0.9676   -4.8794    3.3633 O   0  0
   -1.4049   -6.5015    1.9085 N   0  0
   -1.7745   -7.4255    2.9836 C   0  0
   -1.4431   -6.9480    0.5137 C   0  0
   -0.4891   -2.2408    2.5288 C   0  0
    3.6489    0.8890   -0.4413 H   0  0
    3.4050    0.9373    1.3373 H   0  0
    3.2187    2.4350    0.3644 H   0  0
    1.0016    1.4909    0.9931 H   0  0
    1.2446    1.4425   -0.7860 H   0  0
    0.3542   -1.6045   -2.6107 H   0  0
   -0.3260   -2.2293   -5.1527 H   0  0
    1.4213   -2.5638   -4.9037 H   0  0
    0.9538   -1.5983   -6.8980 H   0  0
   -0.4929   -5.7460   -8.6327 H   0  0
    1.2121   -6.0777   -8.4003 H   0  0
    0.5868   -5.8720  -10.1256 H   0  0
   -2.5866   -6.9215    3.5281 H   0  0
   -0.9011   -7.4519    3.6518 H   0  0
   -2.0636   -8.4266    2.6311 H   0  0
   -0.4283   -6.7706    0.1281 H   0  0
   -2.1138   -6.2403    0.0045 H   0  0
   -1.7628   -7.9931    0.3889 H   0  0
   -1.2219   -1.4342    2.3790 H   0  0
    0.4984   -1.7640    2.6156 H   0  0
   -0.7304   -2.8821    3.3894 H   0  0
  1  2  1  0
  2  3  1  0
  3  4  1  0
  4  5  2  0
  4  6  1  0
  6 10  2  0
  6  7  1  0
  7  8  2  0
  7 28  1  0
  8  9  1  0
  8 23  1  0
  9 10  1  0
 10 11  1  0
 11 12  1  0
 12 13  2  0
 12 14  1  0
 14 15  1  0
 15 16  1  0
 16 17  1  0
 16 21  2  0
 17 18  1  0
 18 19  1  0
 18 20  2  0
 20 21  1  0
 21 22  1  0
 23 24  2  0
 23 25  1  0
 25 26  1  0
 25 27  1  0
  1 29  1  0
  1 30  1  0
  1 31  1  0
  2 32  1  0
  2 33  1  0
 11 34  1  0
 14 35  1  0
 14 36  1  0
 17 37  1  0
 22 38  1  0
 22 39  1  0
 22 40  1  0
 26 41  1  0
 26 42  1  0
 26 43  1  0
 27 44  1  0
 27 45  1  0
 27 46  1  0
 28 47  1  0
 28 48  1  0
 28 49  1  0
M  CHG  2  19  -1  21   1
M  END
> <Name>
ZINC29740578

> <reference>
BDB50021148

> <quality>
0.795

> <status>
decoy

$$$$
ZINC17597498
  SciTegic06061311253D

 51 53  0  0  0  0            999 V2000
    9.0238    6.2520    0.1688 C   0  0
    9.1363    4.9806   -0.4737 O   0  0
    8.0735    4.1392   -0.3676 C   0  0
    6.9471    4.5316    0.3407 C   0  0
    5.8656    3.6786    0.4508 C   0  0
    5.9042    2.4278   -0.1472 C   0  0
    7.0367    2.0300   -0.8539 C   0  0
    8.1169    2.8895   -0.9673 C   0  0
    7.0794    0.8021   -1.4364 O   0  0
    8.2726    0.4614   -2.1451 C   0  0
    4.8060    1.5618   -0.0354 N   0  0
    3.5541    2.0604   -0.0135 C   0  0
    3.3794    3.2608   -0.0087 O   0  0
    2.3713    1.1267    0.0052 C   0  0
    1.1434    1.9014    0.0272 O   0  0
   -0.0141    1.2126    0.0458 C   0  0
    0.0019   -0.0020    0.0438 O   0  0
   -1.3029    1.9343    0.0626 C   0  0
   -1.3249    3.3303    0.0708 C   0  0
   -2.5320    3.9979    0.0807 C   0  0
   -3.7191    3.2872    0.0940 C   0  0
   -3.7046    1.9036    0.0917 C   0  0
   -2.5046    1.2234    0.0761 C   0  0
   -5.0339    4.0234    0.1106 C   0  0
   -5.4438    4.2599    1.4971 N   0  0
   -6.2046    3.4118    2.2168 C   0  0
   -6.6617    2.3495    1.8529 O   0  0
   -6.3684    4.0614    3.5765 C   0  0
   -5.6162    5.3217    3.4510 N   0  5
   -5.1137    5.3472    2.2034 C   0  0
   -4.4356    6.2564    1.7666 O   0  0
    8.8244    6.0453    1.2306 H   0  0
    8.1305    6.7345   -0.2546 H   0  0
    9.9209    6.8752    0.0389 H   0  0
    6.9148    5.5234    0.8154 H   0  0
    4.9735    3.9918    1.0131 H   0  0
    9.0086    2.5811   -1.5327 H   0  0
    9.0978    0.5539   -1.4237 H   0  0
    8.4079    1.2367   -2.9136 H   0  0
    8.2321   -0.5449   -2.5875 H   0  0
    4.9566    0.5450    0.0299 H   0  0
    2.3891    0.4941   -0.8946 H   0  0
    2.4189    0.4908    0.9015 H   0  0
   -0.3818    3.8965    0.0694 H   0  0
   -2.5509    5.0977    0.0780 H   0  0
   -4.6521    1.3448    0.1023 H   0  0
   -2.4944    0.1234    0.0743 H   0  0
   -5.7995    3.4204   -0.3995 H   0  0
   -4.9211    4.9873   -0.4073 H   0  0
   -7.4306    4.2702    3.7717 H   0  0
   -5.9215    3.4280    4.3570 H   0  0
  1  2  1  0
  2  3  1  0
  3  8  2  0
  3  4  1  0
  4  5  2  0
  5  6  1  0
  6  7  2  0
  6 11  1  0
  7  8  1  0
  7  9  1  0
  9 10  1  0
 11 12  1  0
 12 13  2  0
 12 14  1  0
 14 15  1  0
 15 16  1  0
 16 17  2  0
 16 18  1  0
 18 23  2  0
 18 19  1  0
 19 20  2  0
 20 21  1  0
 21 22  2  0
 21 24  1  0
 22 23  1  0
 24 25  1  0
 25 30  1  0
 25 26  1  0
 26 27  2  0
 26 28  1  0
 28 29  1  0
 29 30  1  0
 30 31  2  0
  1 32  1  0
  1 33  1  0
  1 34  1  0
  4 35  1  0
  5 36  1  0
  8 37  1  0
 10 38  1  0
 10 39  1  0
 10 40  1  0
 11 41  1  0
 14 42  1  0
 14 43  1  0
 19 44  1  0
 20 45  1  0
 22 46  1  0
 23 47  1  0
 24 48  1  0
 24 49  1  0
 28 50  1  0
 28 51  1  0
M  CHG  1  29  -1
M  END
> <Name>
ZINC17597498

> <reference>
BDB50021148

> <quality>
0.779

> <status>
decoy

$$$$
ZINC29423862
  SciTegic06061311253D

 52 54  0  0  1  0            999 V2000
    6.2701    4.2917   -2.9190 C   0  0
    5.7788    4.3573   -1.4715 C   0  0
    4.2647    4.5766   -1.4562 C   0  0
    3.7735    4.6422   -0.0087 C   0  0
    2.3237    4.8521    0.0059 N   0  0
    1.6995    6.0467    0.0175 C   0  0
    2.2373    7.1399    0.0176 O   0  0
    0.3710    5.8121    0.0284 N   0  0
    0.1906    4.4221    0.0183 N   0  0
    1.3662    3.8631    0.0098 C   0  0
    1.6797    2.1293   -0.0025 S   0  0
   -0.0184    1.5028    0.0103 C   0  0
    0.0021   -0.0041    0.0020 C   0  0
    1.0606   -0.5962   -0.0113 O   0  0
   -1.1558   -0.6938    0.0094 N   0  0
   -1.1369   -2.0884    0.0017 C   0  0
   -0.0280   -2.8775   -0.0127 C   0  0
   -0.4509   -4.2096   -0.0160 C   0  0
   -1.7592   -4.2259   -0.0041 N   0  0
   -2.2171   -2.9023    0.0131 N   0  0
   -3.6183   -2.4751    0.0357 C   0  0  1  0  0  0
   -4.3440   -3.0083   -1.2107 C   0  0
   -5.8735   -2.8422   -1.0423 C   0  0
   -6.0896   -2.9196    0.7825 S   0  0
   -6.6080   -1.6780    1.2397 O   0  0
   -6.7639   -4.1247    1.1175 O   0  0
   -4.3248   -3.0573    1.2931 C   0  0
    0.4466   -5.4201   -0.0311 C   0  0
    6.0319    5.2355   -3.4313 H   0  0
    5.7744    3.4582   -3.4381 H   0  0
    7.3587    4.1340   -2.9307 H   0  0
    6.0172    3.4130   -0.9601 H   0  0
    6.2745    5.1908   -0.9523 H   0  0
    4.0257    5.5210   -1.9671 H   0  0
    3.7671    3.7434   -1.9740 H   0  0
    4.2692    5.4757    0.5105 H   0  0
    4.0119    3.6979    0.5027 H   0  0
    2.8255    7.0822   -0.7766 H   0  0
   -0.5513    1.8665   -0.8807 H   0  0
   -0.5332    1.8570    0.9156 H   0  0
   -2.0547   -0.1910    0.0207 H   0  0
    1.0153   -2.5289   -0.0204 H   0  0
   -3.6511   -1.3758    0.0548 H   0  0
   -4.0111   -2.4465   -2.0959 H   0  0
   -4.1055   -4.0736   -1.3462 H   0  0
   -6.4083   -3.6778   -1.5174 H   0  0
   -6.1987   -1.8599   -1.4157 H   0  0
   -4.1391   -2.4262    2.1747 H   0  0
   -4.0574   -4.1145    1.4377 H   0  0
    1.0946   -5.2477    0.8409 H   0  0
    1.0781   -5.2381   -0.9132 H   0  0
   -0.0520   -6.4006   -0.0318 H   0  0
  1  2  1  0
  2  3  1  0
  3  4  1  0
  4  5  1  0
  5 10  1  0
  5  6  1  0
  6  7  1  0
  6  8  2  0
  8  9  1  0
  9 10  2  0
 10 11  1  0
 11 12  1  0
 12 13  1  0
 13 14  2  0
 13 15  1  0
 15 16  1  0
 16 20  1  0
 16 17  2  0
 17 18  1  0
 18 19  2  0
 18 28  1  0
 19 20  1  0
 20 21  1  0
 21 27  1  0
 21 22  1  0
 22 23  1  0
 23 24  1  0
 24 25  2  0
 24 26  2  0
 24 27  1  0
  1 29  1  0
  1 30  1  0
  1 31  1  0
  2 32  1  0
  2 33  1  0
  3 34  1  0
  3 35  1  0
  4 36  1  0
  4 37  1  0
  7 38  1  0
 12 39  1  0
 12 40  1  0
 15 41  1  0
 17 42  1  0
 21 43  1  0
 22 44  1  0
 22 45  1  0
 23 46  1  0
 23 47  1  0
 27 48  1  0
 27 49  1  0
 28 50  1  0
 28 51  1  0
 28 52  1  0
M  END
> <Name>
ZINC29423862

> <reference>
BDB50021148

> <quality>
0.757

> <status>
decoy

$$$$
ZINC20829951
  SciTegic06061311253D

 62 64  0  0  0  0            999 V2000
  -10.2109    4.7536    0.8283 C   0  0
  -10.0316    3.4642    0.0245 C   0  0
   -9.1479    2.5485    0.7584 N   0  3
   -9.1396    1.2156    0.1397 C   0  0
   -8.2724    0.2727    0.9772 C   0  0
   -6.9101    0.8161    1.0689 N   0  0
   -6.9184    2.1490    1.6877 C   0  0
   -7.7855    3.0919    0.8502 C   0  0
   -6.0264   -0.0995    1.8029 C   0  0
   -4.5988    0.3638    1.6675 C   0  0
   -4.0564    1.1453    2.6282 C   0  0
   -2.7175    1.5763    2.4953 C   0  0
   -2.2022    2.2840    3.3492 O   0  0
   -1.9837    1.1719    1.3513 C   0  0
   -2.5863    0.3926    0.4220 C   0  0
   -3.8746   -0.0072    0.5846 N   0  0
   -4.4959   -0.8543   -0.4365 C   0  0
   -5.2545    0.0087   -1.4116 C   0  0
   -5.2743    1.2128   -1.2677 O   0  0
   -5.9111   -0.5575   -2.4435 N   0  0
   -6.6901    0.2291   -3.2893 C   0  0
   -7.8632   -0.2876   -3.8323 C   0  0
   -8.6354    0.4844   -4.6612 C   0  0
   -8.2369    1.7911   -4.9699 C   0  0
   -7.0531    2.3048   -4.4255 C   0  0
   -6.2900    1.5274   -3.5934 C   0  0
   -9.0580    2.6202   -5.8615 C   0  0
   -8.7114    3.7518   -6.1273 O   0  0
  -10.3313    2.0652   -6.4461 C   0  0
   -0.6916    1.5666    1.1866 O   0  0
   -0.0212    1.1169    0.0075 C   0  0
   -9.2319    5.2321    0.9790 H   0  0
  -10.6578    4.5185    1.8056 H   0  0
  -10.8725    5.4397    0.2793 H   0  0
  -11.0109    2.9863   -0.1255 H   0  0
   -9.5848    3.6992   -0.9528 H   0  0
   -9.5171    2.4526    1.7152 H   0  0
  -10.1671    0.8253    0.0947 H   0  0
   -8.7278    1.2847   -0.8780 H   0  0
   -8.2401   -0.7182    0.5007 H   0  0
   -8.6992    0.1813    1.9869 H   0  0
   -5.8912    2.5400    1.7335 H   0  0
   -7.3307    2.0789    2.7051 H   0  0
   -7.8157    4.0825    1.3276 H   0  0
   -7.3579    3.1832   -0.1592 H   0  0
   -6.3091   -0.1087    2.8659 H   0  0
   -6.1226   -1.1142    1.3891 H   0  0
   -4.6514    1.4425    3.5043 H   0  0
   -2.0276    0.0804   -0.4727 H   0  0
   -5.1894   -1.5604    0.0436 H   0  0
   -3.7157   -1.4141   -0.9731 H   0  0
   -5.8370   -1.5718   -2.6068 H   0  0
   -8.1710   -1.3169   -3.5959 H   0  0
   -9.5665    0.0782   -5.0832 H   0  0
   -6.7362    3.3305   -4.6653 H   0  0
   -5.3601    1.9300   -3.1653 H   0  0
  -10.9285    1.7529   -5.5767 H   0  0
  -10.0248    1.1484   -6.9710 H   0  0
  -10.8704    2.7668   -7.0997 H   0  0
   -0.6232    1.4682   -0.8435 H   0  0
   -0.0697    0.0181    0.0243 H   0  0
    1.0167    1.4758   -0.0550 H   0  0
  1  2  1  0
  2  3  1  0
  3  8  1  0
  3  4  1  0
  4  5  1  0
  5  6  1  0
  6  7  1  0
  6  9  1  0
  7  8  1  0
  9 10  1  0
 10 16  1  0
 10 11  2  0
 11 12  1  0
 12 13  2  0
 12 14  1  0
 14 15  2  0
 14 30  1  0
 15 16  1  0
 16 17  1  0
 17 18  1  0
 18 19  2  0
 18 20  1  0
 20 21  1  0
 21 26  2  0
 21 22  1  0
 22 23  2  0
 23 24  1  0
 24 25  2  0
 24 27  1  0
 25 26  1  0
 27 28  2  0
 27 29  1  0
 30 31  1  0
  1 32  1  0
  1 33  1  0
  1 34  1  0
  2 35  1  0
  2 36  1  0
  3 37  1  0
  4 38  1  0
  4 39  1  0
  5 40  1  0
  5 41  1  0
  7 42  1  0
  7 43  1  0
  8 44  1  0
  8 45  1  0
  9 46  1  0
  9 47  1  0
 11 48  1  0
 15 49  1  0
 17 50  1  0
 17 51  1  0
 20 52  1  0
 22 53  1  0
 23 54  1  0
 25 55  1  0
 26 56  1  0
 29 57  1  0
 29 58  1  0
 29 59  1  0
 31 60  1  0
 31 61  1  0
 31 62  1  0
M  CHG  1   3   1
M  END
> <Name>
ZINC20829951

> <reference>
BDB50021148

> <quality>
0.756

> <status>
decoy

$$$$
ZINC08835757
  SciTegic06061311253D

 57 59  0  0  1  0            999 V2000
    3.9937    3.3012    5.0303 C   0  0
    4.9049    2.6681    4.0105 C   0  0
    4.5095    1.9035    2.8903 C   0  0
    5.6650    1.5173    2.2337 C   0  0
    6.7177    2.0193    2.8985 N   0  0
    6.2678    2.7252    3.9939 C   0  0
    7.1103    3.4182    4.9741 C   0  0
    6.5987    4.0106    5.9047 O   0  0
    8.4525    3.3985    4.8434 O   0  0
    9.2234    4.1057    5.8503 C   0  0
    5.7303    0.6794    0.9828 C   0  0
    3.1270    1.5737    2.4982 C   0  0
    2.1901    2.0646    3.1005 O   0  0
    2.8806    0.6538    1.3823 C   0  0
    2.9203   -0.6975    1.4269 C   0  0
    2.6121   -1.2372    0.0862 C   0  0
    2.5696   -2.4179   -0.1973 O   0  0
    2.3852   -0.2279   -0.7741 N   0  0
    2.5335    1.0333   -0.0384 C   0  0  1  0  0  0
    1.2396    1.8053   -0.0672 C   0  0
    1.2496    3.1916   -0.0980 C   0  0
    0.0352    3.8598   -0.1233 C   0  0
   -1.1369    3.1272   -0.1169 C   0  0
   -1.1083    1.8091   -0.0927 N   0  0
    0.0281    1.1406   -0.0627 C   0  0
    2.0491   -0.3638   -2.1935 C   0  0
    3.3348   -0.3807   -3.0227 C   0  0
    2.2829    0.6701   -4.9337 C   0  0
    4.2003   -0.7743   -5.2495 C   0  0
    3.1979   -1.4377    2.5252 O   0  5
    2.9803   -0.5395   -4.4488 N   0  3
    4.3084    4.3549    5.0057 H   0  0
    4.3814    2.8960    5.9766 H   0  0
    2.9136    3.1511    4.8859 H   0  0
    7.7051    1.8965    2.6323 H   0  0
    8.9437    3.6668    6.8194 H   0  0
    8.8697    5.1472    5.8363 H   0  0
   10.3076    4.0435    5.6751 H   0  0
    5.0884    1.2384    0.2860 H   0  0
    5.1580   -0.2168    1.2644 H   0  0
    6.7351    0.4637    0.5905 H   0  0
    3.3108    1.6704   -0.4855 H   0  0
    2.1986    3.7479   -0.1023 H   0  0
    0.0048    4.9591   -0.1482 H   0  0
   -2.1047    3.6498   -0.1322 H   0  0
    0.0114    0.0411   -0.0338 H   0  0
    1.4232    0.4850   -2.5062 H   0  0
    1.4989   -1.3031   -2.3519 H   0  0
    3.9679   -1.2224   -2.7053 H   0  0
    3.8766    0.5662   -2.8815 H   0  0
    2.9426    1.5423   -4.8151 H   0  0
    1.3674    0.8232   -4.3434 H   0  0
    2.0210    0.5476   -5.9950 H   0  0
    4.6996   -1.6870   -4.8922 H   0  0
    4.8812    0.0820   -5.1343 H   0  0
    3.9319   -0.8919   -6.3098 H   0  0
    2.3530   -1.3502   -4.5493 H   0  0
  1  2  1  0
  2  6  2  0
  2  3  1  0
  3  4  2  0
  3 12  1  0
  4  5  1  0
  4 11  1  0
  5  6  1  0
  6  7  1  0
  7  8  2  0
  7  9  1  0
  9 10  1  0
 12 13  2  0
 12 14  1  0
 14 19  1  0
 14 15  2  0
 15 16  1  0
 15 30  1  0
 16 17  2  0
 16 18  1  0
 18 19  1  0
 18 26  1  0
 19 20  1  0
 20 25  2  0
 20 21  1  0
 21 22  2  0
 22 23  1  0
 23 24  2  0
 24 25  1  0
 26 27  1  0
 27 31  1  0
 28 31  1  0
 29 31  1  0
  1 32  1  0
  1 33  1  0
  1 34  1  0
  5 35  1  0
 10 36  1  0
 10 37  1  0
 10 38  1  0
 11 39  1  0
 11 40  1  0
 11 41  1  0
 19 42  1  0
 21 43  1  0
 22 44  1  0
 23 45  1  0
 25 46  1  0
 26 47  1  0
 26 48  1  0
 27 49  1  0
 27 50  1  0
 28 51  1  0
 28 52  1  0
 28 53  1  0
 29 54  1  0
 29 55  1  0
 29 56  1  0
 31 57  1  0
M  CHG  2  30  -1  31   1
M  END
> <Name>
ZINC08835757

> <reference>
BDB50021148

> <quality>
0.750

> <status>
decoy

$$$$
ZINC15228177
  SciTegic06061311253D

 53 54  0  0  0  0            999 V2000
    1.5162   -4.6250   -1.3447 C   0  0
    2.2159   -4.2326   -0.0418 C   0  0  1  0  0  0
    3.5469   -4.9793    0.0672 C   0  0
    2.4750   -2.7248   -0.0362 C   0  0
    1.1965   -2.0096   -0.0202 N   0  0
    1.1783   -0.6620   -0.0127 C   0  0
    2.2224   -0.0400   -0.0194 O   0  0
    0.0021   -0.0041    0.0020 N   0  0
   -0.0162    1.3436    0.0094 C   0  0
    1.0254    1.9639    0.0028 O   0  0
   -1.3314    2.0792    0.0197 C   0  0
   -1.0248    3.8631    0.0279 S   0  0
   -2.6831    4.4585    0.0390 C   0  0
   -3.7718    3.7251    0.0344 N   0  0
   -4.8048    4.4919    0.0485 N   0  0
   -4.4179    5.7443    0.0537 C   0  0
   -3.0664    5.7497    0.0478 O   0  0
   -5.2972    6.9313    0.0634 C   0  0
   -4.7425    8.2125    0.0731 C   0  0
   -5.5684    9.3225    0.0778 C   0  0
   -6.9503    9.1628    0.0831 C   0  0
   -7.5057    7.8873    0.0783 C   0  0
   -6.6845    6.7739    0.0687 C   0  0
   -8.8571    7.7347    0.0834 O   0  0
   -9.3589    6.3967    0.0785 C   0  0
   -7.7602   10.2560    0.0934 O   0  0
   -8.1402   10.7698    1.3715 C   0  0
   -5.0287   10.5708    0.0830 O   0  0
   -3.6025   10.6611    0.0771 C   0  0
    1.3291   -5.7090   -1.3496 H   0  0
    2.1555   -4.3600   -2.1997 H   0  0
    0.5592   -4.0885   -1.4237 H   0  0
    1.5757   -4.4978    0.8125 H   0  0
    4.1880   -4.7146   -0.7865 H   0  0
    3.3616   -6.0636    0.0635 H   0  0
    4.0505   -4.6976    1.0037 H   0  0
    3.0562   -2.4558    0.8581 H   0  0
    3.0394   -2.4453   -0.9380 H   0  0
    0.3116   -2.5367   -0.0147 H   0  0
   -0.8828   -0.5312    0.0076 H   0  0
   -1.9087    1.8111   -0.8774 H   0  0
   -1.9010    1.8018    0.9189 H   0  0
   -3.6498    8.3393    0.0770 H   0  0
   -7.1242    5.7656    0.0652 H   0  0
   -8.9308    5.9026    0.9632 H   0  0
   -8.9386    5.9121   -0.8151 H   0  0
  -10.4581    6.3545    0.0831 H   0  0
   -7.2049   11.0014    1.9022 H   0  0
   -8.6338    9.9428    1.9029 H   0  0
   -8.7936   11.6517    1.2985 H   0  0
   -3.2620   10.1182   -0.8169 H   0  0
   -3.2539   10.1073    0.9613 H   0  0
   -3.2419   11.7003    0.0818 H   0  0
  1  2  1  0
  2  3  1  0
  2  4  1  0
  4  5  1  0
  5  6  1  0
  6  7  2  0
  6  8  1  0
  8  9  1  0
  9 10  2  0
  9 11  1  0
 11 12  1  0
 12 13  1  0
 13 17  1  0
 13 14  2  0
 14 15  1  0
 15 16  2  0
 16 17  1  0
 16 18  1  0
 18 23  2  0
 18 19  1  0
 19 20  2  0
 20 21  1  0
 20 28  1  0
 21 22  2  0
 21 26  1  0
 22 23  1  0
 22 24  1  0
 24 25  1  0
 26 27  1  0
 28 29  1  0
  1 30  1  0
  1 31  1  0
  1 32  1  0
  2 33  1  0
  3 34  1  0
  3 35  1  0
  3 36  1  0
  4 37  1  0
  4 38  1  0
  5 39  1  0
  8 40  1  0
 11 41  1  0
 11 42  1  0
 19 43  1  0
 23 44  1  0
 25 45  1  0
 25 46  1  0
 25 47  1  0
 27 48  1  0
 27 49  1  0
 27 50  1  0
 29 51  1  0
 29 52  1  0
 29 53  1  0
M  END
> <Name>
ZINC15228177

> <reference>
BDB50021148

> <quality>
0.747

> <status>
decoy

$$$$
ZINC29987319
  SciTegic06061311253D

 56 58  0  0  1  0            999 V2000
   -2.4899   -1.4471   -1.9101 C   0  0
   -3.0584   -0.1293   -2.2041 N   0  0
   -3.6694    0.2503   -3.3687 C   0  0
   -4.0401    1.5356   -3.2132 C   0  0
   -3.6700    1.9286   -1.9854 N   0  0
   -3.0770    0.9380   -1.3770 C   0  0
   -2.5124    0.9768    0.0197 C   0  0  1  0  0  0
   -1.2188    1.7498    0.0173 C   0  0
   -0.0126    1.0758    0.0080 C   0  0
    1.1800    1.7854    0.0004 C   0  0
    1.1605    3.1716    0.0076 C   0  0
   -0.0509    3.8455    0.0223 C   0  0
   -1.2408    3.1313    0.0298 C   0  0
   -0.0733    5.2042    0.0289 O   0  0
    1.1891    5.8739    0.0200 C   0  0
    2.3660    1.1220   -0.0136 O   0  0
    3.5537    1.9165   -0.0207 C   0  0
   -3.4700    1.6300    0.9156 N   0  0
   -4.4646    0.9141    1.4765 C   0  0
   -4.5672   -0.2736    1.2390 O   0  0
   -5.4312    1.5735    2.3808 C   0  0
   -6.4752    0.8193    2.9688 C   0  0
   -7.3469    1.4611    3.7975 C   0  0
   -7.1540    2.8429    4.0188 C   0  0
   -7.9091    3.4585    4.7529 O   0  0
   -6.1311    3.4756    3.4145 N   0  0
   -5.3151    2.8564    2.6404 N   0  0
   -5.9399    4.9087    3.6514 C   0  0
   -5.0228    5.1079    4.8598 C   0  0
   -3.7222    4.5975    4.5601 O   0  0
   -2.7834    4.7350    5.6286 C   0  0
   -3.0046   -1.7240   -0.9782 H   0  0
   -1.4581   -1.2000   -1.6196 H   0  0
   -2.5623   -2.2052   -2.7039 H   0  0
   -3.8273   -0.3744   -4.2602 H   0  0
   -4.5560    2.1546   -3.9619 H   0  0
   -2.3255   -0.0496    0.3683 H   0  0
    0.0023   -0.0241    0.0066 H   0  0
    2.1047    3.7359    0.0017 H   0  0
   -2.2023    3.6655    0.0457 H   0  0
    1.7204    5.5204   -0.8759 H   0  0
    1.7374    5.5120    0.9023 H   0  0
    1.0896    6.9694    0.0261 H   0  0
    3.5025    2.5572    0.8720 H   0  0
    3.4863    2.5656   -0.9062 H   0  0
    4.4713    1.3099   -0.0320 H   0  0
   -3.3831    2.6364    1.1168 H   0  0
   -6.5802   -0.2561    2.7624 H   0  0
   -8.1747    0.9198    4.2789 H   0  0
   -6.9131    5.3819    3.8487 H   0  0
   -5.4814    5.3692    2.7639 H   0  0
   -4.9505    6.1806    5.0925 H   0  0
   -5.4355    4.5716    5.7270 H   0  0
   -3.1946    4.2066    6.5013 H   0  0
   -2.7123    5.8054    5.8718 H   0  0
   -1.7978    4.3301    5.3554 H   0  0
  1  2  1  0
  2  6  1  0
  2  3  1  0
  3  4  2  0
  4  5  1  0
  5  6  2  0
  6  7  1  0
  7  8  1  0
  7 18  1  0
  8 13  2  0
  8  9  1  0
  9 10  2  0
 10 11  1  0
 10 16  1  0
 11 12  2  0
 12 13  1  0
 12 14  1  0
 14 15  1  0
 16 17  1  0
 18 19  1  0
 19 20  2  0
 19 21  1  0
 21 27  2  0
 21 22  1  0
 22 23  2  0
 23 24  1  0
 24 25  2  0
 24 26  1  0
 26 27  1  0
 26 28  1  0
 28 29  1  0
 29 30  1  0
 30 31  1  0
  1 32  1  0
  1 33  1  0
  1 34  1  0
  3 35  1  0
  4 36  1  0
  7 37  1  0
  9 38  1  0
 11 39  1  0
 13 40  1  0
 15 41  1  0
 15 42  1  0
 15 43  1  0
 17 44  1  0
 17 45  1  0
 17 46  1  0
 18 47  1  0
 22 48  1  0
 23 49  1  0
 28 50  1  0
 28 51  1  0
 29 52  1  0
 29 53  1  0
 31 54  1  0
 31 55  1  0
 31 56  1  0
M  END
> <Name>
ZINC29987319

> <reference>
BDB50021148

> <quality>
0.745

> <status>
decoy

$$$$
ZINC22718635
  SciTegic06061311253D

 51 54  0  0  1  0            999 V2000
   -0.0184    1.5028    0.0103 C   0  0
    0.0021   -0.0041    0.0020 C   0  0
   -0.0036   -0.7769   -1.0970 C   0  0
    0.0256   -2.1683   -0.6260 C   0  0
    0.0378   -2.1008    0.7550 C   0  0
    0.0235   -0.8022    1.1115 N   0  0
    0.0292   -0.3348    2.4340 C   0  0
   -1.0495   -0.5973    3.2676 C   0  0
   -1.0455   -0.1378    4.5704 C   0  0
    0.0348    0.5863    5.0490 C   0  0
    1.1185    0.8512    4.2148 C   0  0
    1.1157    0.3851    2.9108 C   0  0
    2.0421    1.5724    4.9151 O   0  0
    1.3367    2.0960    6.0558 C   0  0
    0.2801    1.1421    6.2721 O   0  0
    0.0623   -3.2764    1.6976 C   0  0
    0.0343   -3.3784   -1.4500 C   0  0
    0.0541   -4.4713   -0.9229 O   0  0
    0.0185   -3.2669   -2.9528 C   0  0
    0.0311   -4.5961   -3.5370 O   0  0
    0.0194   -4.6730   -4.8770 C   0  0
   -0.0006   -3.6630   -5.5399 O   0  0
    0.0313   -6.0189   -5.5547 C   0  0
    0.0143   -5.8260   -7.0724 C   0  0
    0.0264   -7.1925   -7.7604 C   0  0  2  0  0  0
    0.0810   -7.0308   -9.2666 C   0  0
    0.9584   -6.5020   -9.9150 O   0  0
   -1.0482   -7.5978   -9.7351 N   0  0
   -1.8009   -8.0902   -8.7446 C   0  0
   -2.8661   -8.6487   -8.9191 O   0  0
   -1.2452   -7.8997   -7.5306 N   0  5
    0.8624    1.7555    0.6188 H   0  0
   -0.8941    1.7315    0.6355 H   0  0
   -0.0344    1.9925   -0.9745 H   0  0
   -0.0257   -0.4355   -2.1424 H   0  0
   -1.9083   -1.1718    2.8903 H   0  0
   -1.9013   -0.3471    5.2290 H   0  0
    1.9744    0.5854    2.2531 H   0  0
    2.0019    2.1309    6.9312 H   0  0
    0.9139    3.0842    5.8220 H   0  0
    0.9439   -3.8384    1.3558 H   0  0
   -0.8105   -3.8616    1.3724 H   0  0
    0.0694   -3.0425    2.7724 H   0  0
   -0.8903   -2.7354   -3.2716 H   0  0
    0.9057   -2.7107   -3.2897 H   0  0
    0.9400   -6.5672   -5.2655 H   0  0
   -0.8560   -6.5926   -5.2488 H   0  0
    0.9016   -5.2534   -7.3803 H   0  0
   -0.8944   -5.2781   -7.3624 H   0  0
    0.8952   -7.7332   -7.3568 H   0  0
   -1.3006   -7.6461  -10.7325 H   0  0
  1  2  1  0
  2  6  1  0
  2  3  2  0
  3  4  1  0
  4  5  2  0
  4 17  1  0
  5  6  1  0
  5 16  1  0
  6  7  1  0
  7 12  2  0
  7  8  1  0
  8  9  2  0
  9 10  1  0
 10 15  1  0
 10 11  2  0
 11 12  1  0
 11 13  1  0
 13 14  1  0
 14 15  1  0
 17 18  2  0
 17 19  1  0
 19 20  1  0
 20 21  1  0
 21 22  2  0
 21 23  1  0
 23 24  1  0
 24 25  1  0
 25 31  1  0
 25 26  1  0
 26 27  2  0
 26 28  1  0
 28 29  1  0
 29 30  2  0
 29 31  1  0
  1 32  1  0
  1 33  1  0
  1 34  1  0
  3 35  1  0
  8 36  1  0
  9 37  1  0
 12 38  1  0
 14 39  1  0
 14 40  1  0
 16 41  1  0
 16 42  1  0
 16 43  1  0
 19 44  1  0
 19 45  1  0
 23 46  1  0
 23 47  1  0
 24 48  1  0
 24 49  1  0
 25 50  1  0
 28 51  1  0
M  CHG  1  31  -1
M  END
> <Name>
ZINC22718635

> <reference>
BDB50021148

> <quality>
0.743

> <status>
decoy

$$$$
ZINC16126189
  SciTegic06061311253D

 49 50  0  0  1  0            999 V2000
    1.8541    2.7728   -1.4636 C   0  0
    1.4730    2.4269   -0.0227 C   0  0  1  0  0  0
    1.3856    3.7113    0.8040 C   0  0
    0.4786    4.6204    0.1773 O   0  0
    0.3235    5.8590    0.8730 C   0  0
    0.1744    1.7489   -0.0104 N   0  0
    0.1042    0.0944   -0.0079 S   0  0
   -1.2730   -0.2536    0.0318 O   0  0
    0.9728   -0.3505   -1.0407 O   0  0
    0.8064   -0.4546    1.5120 C   0  0
    2.1610   -0.7216    1.5895 C   0  0
    2.7156   -1.1466    2.7807 C   0  0
    1.9091   -1.3167    3.8989 C   0  0
    0.5477   -1.0530    3.8161 C   0  0
    0.0006   -0.6229    2.6232 C   0  0
    2.4656   -1.7523    5.1036 N   0  5
    3.5170   -3.0316    5.1153 S   0  0
    4.5216   -2.7405    4.1534 O   0  0
    3.8208   -3.2953    6.4782 O   0  0
    2.6367   -4.4350    4.5150 C   0  0
    1.8725   -5.1923    5.3856 C   0  0
    1.1768   -6.2891    4.9226 C   0  0
    1.2530   -6.6414    3.5714 C   0  0
    2.0316   -5.8742    2.6990 C   0  0
    2.7176   -4.7774    3.1764 C   0  0
    0.5174   -7.8132    3.0699 C   0  0
    0.5854   -8.1157    1.8977 O   0  0
   -0.3204   -8.6373    4.0133 C   0  0
    2.8292    3.2817   -1.4740 H   0  0
    1.0906    3.4356   -1.8969 H   0  0
    1.9171    1.8498   -2.0586 H   0  0
    2.2369    1.7639    0.4096 H   0  0
    1.0245    3.4727    1.8153 H   0  0
    2.3811    4.1747    0.8699 H   0  0
    1.3177    6.3236    0.9485 H   0  0
   -0.0301    5.6269    1.8884 H   0  0
   -0.3818    6.5270    0.3568 H   0  0
   -0.6949    2.3013   -0.0033 H   0  0
    2.7975   -0.5953    0.7013 H   0  0
    3.7947   -1.3502    2.8440 H   0  0
   -0.0938   -1.1866    4.6996 H   0  0
   -1.0773   -0.4140    2.5569 H   0  0
    1.8200   -4.9185    6.4497 H   0  0
    0.5635   -6.8854    5.6142 H   0  0
    2.0966   -6.1450    1.6348 H   0  0
    3.3307   -4.1731    2.4916 H   0  0
   -1.0250   -7.9222    4.4630 H   0  0
    0.3731   -8.9478    4.8087 H   0  0
   -0.8281   -9.4896    3.5381 H   0  0
  1  2  1  0
  2  3  1  0
  2  6  1  0
  3  4  1  0
  4  5  1  0
  6  7  1  0
  7  8  2  0
  7  9  2  0
  7 10  1  0
 10 15  2  0
 10 11  1  0
 11 12  2  0
 12 13  1  0
 13 14  2  0
 13 16  1  0
 14 15  1  0
 16 17  1  0
 17 18  2  0
 17 19  2  0
 17 20  1  0
 20 25  2  0
 20 21  1  0
 21 22  2  0
 22 23  1  0
 23 24  2  0
 23 26  1  0
 24 25  1  0
 26 27  2  0
 26 28  1  0
  1 29  1  0
  1 30  1  0
  1 31  1  0
  2 32  1  0
  3 33  1  0
  3 34  1  0
  5 35  1  0
  5 36  1  0
  5 37  1  0
  6 38  1  0
 11 39  1  0
 12 40  1  0
 14 41  1  0
 15 42  1  0
 21 43  1  0
 22 44  1  0
 24 45  1  0
 25 46  1  0
 28 47  1  0
 28 48  1  0
 28 49  1  0
M  CHG  1  16  -1
M  END
> <Name>
ZINC16126189

> <reference>
BDB50021148

> <quality>
0.743

> <status>
decoy

$$$$
ZINC21129260
  SciTegic06061311253D

 51 53  0  0  0  0            999 V2000
   -0.0127    1.0858    0.0080 C   0  0
   -0.7181    1.5718    1.2479 C   0  0
   -0.1289    1.8553    2.5014 C   0  0
   -1.1706    2.2531    3.2703 C   0  0
   -2.2608    2.1930    2.4929 O   0  0
   -1.9897    1.8192    1.3753 N   0  0
   -1.1149    2.6788    4.7149 C   0  0
    1.5679    1.7227    2.9575 S   0  0
    1.5976    1.5607    4.3689 O   0  0
    2.1546    0.7805    2.0701 O   0  0
    2.2776    3.1834    2.6337 N   0  0
    1.8650    4.3784    3.3740 C   0  0
    2.8983    5.4878    3.1683 C   0  0
    2.4738    6.7171    3.9298 C   0  0
    1.4460    6.7068    4.5737 O   0  0
    3.2364    7.8278    3.8955 N   0  0
    2.8449    8.9616    4.5979 C   0  0
    3.4514   10.1289    4.6913 N   0  0
    2.9360   11.1115    5.4039 C   0  0
    1.7667   10.8936    6.0541 C   0  0
    1.4356    9.2019    5.5836 S   0  0
    3.6340   12.4437    5.4984 C   0  0
    4.6459   12.3919    6.5621 N   0  0
    4.0158   12.2403    7.8817 C   0  0
    5.1052   12.1308    8.9518 C   0  0
    5.9501   13.2828    8.8844 O   0  0
    6.5805   13.4608    7.6132 C   0  0
    5.5061   13.5837    6.5295 C   0  0
   -0.3022    1.8379   -0.7407 H   0  0
   -0.5759    0.1754   -0.2448 H   0  0
    1.0732    0.9323    0.0930 H   0  0
   -0.3597    3.4783    4.6945 H   0  0
   -0.6250    1.8183    5.1940 H   0  0
   -2.0678    2.9711    5.1802 H   0  0
    3.0091    3.2518    1.9118 H   0  0
    0.8854    4.7177    3.0062 H   0  0
    1.7921    4.1404    4.4455 H   0  0
    2.9718    5.7280    2.0974 H   0  0
    3.8781    5.1493    3.5363 H   0  0
    4.1093    7.8365    3.3488 H   0  0
    1.1829   11.5711    6.6945 H   0  0
    2.8989   13.2284    5.7305 H   0  0
    4.1223   12.6708    4.5393 H   0  0
    3.3985   11.3299    7.8928 H   0  0
    3.3840   13.1164    8.0900 H   0  0
    4.6387   12.0758    9.9465 H   0  0
    5.7048   11.2256    8.7755 H   0  0
    7.1902   14.3762    7.6304 H   0  0
    7.2226   12.5945    7.3959 H   0  0
    5.9873   13.6626    5.5435 H   0  0
    4.8987   14.4816    6.7159 H   0  0
  1  2  1  0
  2  6  2  0
  2  3  1  0
  3  4  2  0
  3  8  1  0
  4  5  1  0
  4  7  1  0
  5  6  1  0
  8  9  2  0
  8 10  2  0
  8 11  1  0
 11 12  1  0
 12 13  1  0
 13 14  1  0
 14 15  2  0
 14 16  1  0
 16 17  1  0
 17 21  1  0
 17 18  2  0
 18 19  1  0
 19 20  2  0
 19 22  1  0
 20 21  1  0
 22 23  1  0
 23 28  1  0
 23 24  1  0
 24 25  1  0
 25 26  1  0
 26 27  1  0
 27 28  1  0
  1 29  1  0
  1 30  1  0
  1 31  1  0
  7 32  1  0
  7 33  1  0
  7 34  1  0
 11 35  1  0
 12 36  1  0
 12 37  1  0
 13 38  1  0
 13 39  1  0
 16 40  1  0
 20 41  1  0
 22 42  1  0
 22 43  1  0
 24 44  1  0
 24 45  1  0
 25 46  1  0
 25 47  1  0
 27 48  1  0
 27 49  1  0
 28 50  1  0
 28 51  1  0
M  END
> <Name>
ZINC21129260

> <reference>
BDB50021148

> <quality>
0.739

> <status>
decoy

$$$$
ZINC22251312
  SciTegic06061311253D

 55 57  0  0  1  0            999 V2000
    0.6025    3.6931    1.2271 C   0  0
   -0.8100    3.1071    1.2741 C   0  0
   -0.7288    1.5792    1.2668 C   0  0  2  0  0  0
   -2.1123    0.9679    1.3676 C   0  0
   -3.0287    1.0970    0.5845 O   0  0
   -2.1119    0.2518    2.5093 N   0  0
   -0.9328    0.3250    3.1373 C   0  0
   -0.6904   -0.2375    4.1871 O   0  0
   -0.0455    1.0908    2.4770 N   0  5
   -3.2609   -0.5117    3.0023 C   0  0
   -4.1063    0.3679    3.8870 C   0  0
   -3.7823    1.5149    4.0853 O   0  0
   -5.2193   -0.1229    4.4546 O   0  0
   -5.9845    0.7811    5.2945 C   0  0
   -7.1899    0.0601    5.8406 C   0  0
   -7.3848   -1.1012    5.5505 O   0  0
   -8.0514    0.7059    6.6514 N   0  0
   -9.2232    0.0050    7.1823 C   0  0
  -10.0175    0.9433    8.0540 C   0  0
   -9.7367    1.0169    9.4171 C   0  0
  -10.4318    1.8573   10.2311 C   0  0
  -11.4561    2.6565    9.6942 C   0  0
  -12.1983    3.5310   10.5049 C   0  0
  -13.1865    4.2920    9.9487 C   0  0
  -13.4699    4.2125    8.5815 C   0  0
  -12.7694    3.3758    7.7701 C   0  0
  -11.7451    2.5776    8.3088 C   0  0
  -11.0019    1.7019    7.4992 C   0  0
  -13.9036    5.1380   10.7340 O   0  0
  -14.9241    5.9079   10.0953 C   0  0
   -0.0127    1.0858    0.0080 C   0  0
    1.1093    3.3580    0.3101 H   0  0
    1.1712    3.3527    2.1050 H   0  0
    0.5449    4.7916    1.2323 H   0  0
   -1.3788    3.4475    0.3963 H   0  0
   -1.3159    3.4425    2.1915 H   0  0
   -2.9063   -1.3783    3.5795 H   0  0
   -3.8627   -0.8602    2.1500 H   0  0
   -6.3138    1.6458    4.6996 H   0  0
   -5.3562    1.1274    6.1283 H   0  0
   -7.8859    1.6922    6.8978 H   0  0
   -8.8958   -0.8595    7.7785 H   0  0
   -9.8522   -0.3413    6.3490 H   0  0
   -8.9414    0.3864    9.8413 H   0  0
  -10.1934    1.9109   11.3036 H   0  0
  -11.9848    3.6025   11.5816 H   0  0
  -14.2707    4.8355    8.1565 H   0  0
  -13.0033    3.3237    6.6965 H   0  0
  -11.2147    1.6299    6.4224 H   0  0
  -15.6034    5.1860    9.6184 H   0  0
  -14.4267    6.4803    9.2985 H   0  0
  -15.4596    6.5674   10.7941 H   0  0
    1.0030    1.5075   -0.0159 H   0  0
   -0.5673    1.4282   -0.8781 H   0  0
    0.0406   -0.0129    0.0120 H   0  0
  1  2  1  0
  2  3  1  0
  3  9  1  0
  3  4  1  0
  3 31  1  0
  4  5  2  0
  4  6  1  0
  6  7  1  0
  6 10  1  0
  7  8  2  0
  7  9  1  0
 10 11  1  0
 11 12  2  0
 11 13  1  0
 13 14  1  0
 14 15  1  0
 15 16  2  0
 15 17  1  0
 17 18  1  0
 18 19  1  0
 19 28  1  0
 19 20  2  0
 20 21  1  0
 21 22  2  0
 22 27  1  0
 22 23  1  0
 23 24  2  0
 24 25  1  0
 24 29  1  0
 25 26  2  0
 26 27  1  0
 27 28  2  0
 29 30  1  0
  1 32  1  0
  1 33  1  0
  1 34  1  0
  2 35  1  0
  2 36  1  0
 10 37  1  0
 10 38  1  0
 14 39  1  0
 14 40  1  0
 17 41  1  0
 18 42  1  0
 18 43  1  0
 20 44  1  0
 21 45  1  0
 23 46  1  0
 25 47  1  0
 26 48  1  0
 28 49  1  0
 30 50  1  0
 30 51  1  0
 30 52  1  0
 31 53  1  0
 31 54  1  0
 31 55  1  0
M  CHG  1   9  -1
M  END
> <Name>
ZINC22251312

> <reference>
BDB50021148

> <quality>
0.738

> <status>
decoy

$$$$
ZINC30942885
  SciTegic06061311253D

 66 68  0  0  1  0            999 V2000
   -4.9448    9.6555    1.8775 C   0  0
   -5.2642    9.2725    3.3240 C   0  0
   -4.0702    9.6142    4.2176 C   0  0  1  0  0  0
   -4.4046    9.2682    5.6699 C   0  0
   -3.4148    9.9697    6.6022 C   0  0
   -2.8501    8.8072    3.7690 C   0  0  1  0  0  0
   -2.2747    9.4206    2.4909 C   0  0
   -1.2862    8.5069    1.9129 N   0  0
   -0.6113    8.8599    0.8009 C   0  0
   -0.8224    9.9341    0.2789 O   0  0
    0.4055    7.9200    0.2063 C   0  0
    1.0217    8.5577   -1.0405 C   0  0
    2.0103    7.6440   -1.6185 N   0  0
    3.3387    7.6543   -1.3943 C   0  0
    3.9092    6.6951   -2.0777 N   0  0
    2.9867    6.0232   -2.7712 C   0  0
    1.7574    6.6093   -2.4967 C   0  0
    0.5957    6.0888   -3.1066 C   0  0
   -0.4928    6.5886   -2.8858 O   0  0
    0.7060    5.0346   -3.9416 N   0  0
    1.9019    4.4772   -4.1983 C   0  0
    1.9629    3.5279   -4.9558 O   0  0
    3.0338    4.9429   -3.6375 N   0  0
    4.3174    4.3068   -3.9442 C   0  0
   -0.4957    4.4898   -4.5784 C   0  0
   -1.8306    8.8327    4.8263 N   0  3
   -1.1887   10.1528    4.9076 C   0  0
   -0.1784   10.1530    6.0580 C   0  0
    0.7694    9.1018    5.8536 O   0  0
    0.1786    7.8020    5.7702 C   0  0
   -0.8280    7.7779    4.6170 C   0  0
   -4.0606    9.0973    1.5360 H   0  0
   -4.7413   10.7349    1.8193 H   0  0
   -5.8029    9.4101    1.2345 H   0  0
   -5.4678    8.1931    3.3823 H   0  0
   -6.1483    9.8313    3.6647 H   0  0
   -3.8485   10.6887    4.1384 H   0  0
   -5.4263    9.6040    5.9011 H   0  0
   -4.3348    8.1799    5.8141 H   0  0
   -3.4841   11.0583    6.4601 H   0  0
   -2.3925    9.6348    6.3723 H   0  0
   -3.6547    9.7213    7.6466 H   0  0
   -3.1500    7.7671    3.5737 H   0  0
   -3.0858    9.5880    1.7670 H   0  0
   -1.7915   10.3798    2.7285 H   0  0
   -1.1069    7.5947    2.3563 H   0  0
    1.1963    7.7205    0.9444 H   0  0
   -0.0848    6.9750   -0.0703 H   0  0
    1.5134    9.5025   -0.7656 H   0  0
    0.2314    8.7570   -1.7792 H   0  0
    3.8643    8.3620   -0.7363 H   0  0
    4.7304    4.0121   -2.9682 H   0  0
    4.9515    5.1168   -4.3337 H   0  0
    4.2419    3.4596   -4.6418 H   0  0
   -0.9479    5.3357   -5.1169 H   0  0
   -1.1709    4.2296   -3.7499 H   0  0
   -0.2961    3.6332   -5.2390 H   0  0
   -2.3027    8.6513    5.7236 H   0  0
   -1.9524   10.9231    5.0905 H   0  0
   -0.6682   10.3671    3.9625 H   0  0
    0.3462   11.1195    6.0859 H   0  0
   -0.7048    9.9919    7.0104 H   0  0
    0.9631    7.0528    5.5877 H   0  0
   -0.3389    7.5713    6.7131 H   0  0
   -1.3267    6.7979    4.5861 H   0  0
   -0.3014    7.9534    3.6673 H   0  0
  1  2  1  0
  2  3  1  0
  3  4  1  0
  3  6  1  0
  4  5  1  0
  6  7  1  0
  6 26  1  0
  7  8  1  0
  8  9  1  0
  9 10  2  0
  9 11  1  0
 11 12  1  0
 12 13  1  0
 13 17  1  0
 13 14  1  0
 14 15  2  0
 15 16  1  0
 16 23  1  0
 16 17  2  0
 17 18  1  0
 18 19  2  0
 18 20  1  0
 20 21  1  0
 20 25  1  0
 21 22  2  0
 21 23  1  0
 23 24  1  0
 26 31  1  0
 26 27  1  0
 27 28  1  0
 28 29  1  0
 29 30  1  0
 30 31  1  0
  1 32  1  0
  1 33  1  0
  1 34  1  0
  2 35  1  0
  2 36  1  0
  3 37  1  0
  4 38  1  0
  4 39  1  0
  5 40  1  0
  5 41  1  0
  5 42  1  0
  6 43  1  0
  7 44  1  0
  7 45  1  0
  8 46  1  0
 11 47  1  0
 11 48  1  0
 12 49  1  0
 12 50  1  0
 14 51  1  0
 24 52  1  0
 24 53  1  0
 24 54  1  0
 25 55  1  0
 25 56  1  0
 25 57  1  0
 26 58  1  0
 27 59  1  0
 27 60  1  0
 28 61  1  0
 28 62  1  0
 30 63  1  0
 30 64  1  0
 31 65  1  0
 31 66  1  0
M  CHG  1  26   1
M  END
> <Name>
ZINC30942885

> <reference>
BDB50021148

> <quality>
0.738

> <status>
decoy

$$$$
ZINC16618603
  SciTegic06061311253D

 55 57  0  0  1  0            999 V2000
    2.1154   -1.4088   -1.1771 C   0  0
    1.4892   -0.2226   -0.4902 C   0  0
    2.0235    0.5006    0.5073 C   0  0
    1.1513    1.4941    0.8637 N   0  0
    0.0314    1.4302    0.0983 C   0  0
    0.1763    0.3665   -0.7813 C   0  0
   -0.7634   -0.0683   -1.7705 C   0  0
   -1.5089   -0.4132   -2.5553 N   0  0
   -1.0612    2.2809    0.1774 N   0  0
   -2.2475    1.8153    0.6157 C   0  0
   -2.3415    0.6730    1.0124 O   0  0
   -3.4573    2.7139    0.6130 C   0  0
   -4.6028    1.9850    1.1277 O   0  0
   -5.7683    2.6478    1.1915 C   0  0
   -5.8293    3.7988    0.8293 O   0  0
   -7.0007    1.9562    1.7149 C   0  0
   -8.1328    2.8856    1.6833 N   0  0
   -9.3470    2.4831    2.1077 C   0  0
   -9.5031    1.3478    2.5170 O   0  0
  -10.4803    3.4135    2.0761 C   0  0
  -11.7568    3.1369    2.4742 C   0  0
  -12.5051    4.3071    2.2719 C   0  0
  -11.6632    5.2349    1.7656 C   0  0
  -10.4429    4.6944    1.6541 O   0  0
    1.3917    2.4830    1.9176 C   0  0
    0.9656    1.9031    3.2678 C   0  0  1  0  0  0
    1.2620    2.9134    4.4046 C   0  0
    0.2302    2.4640    5.4748 C   0  0
   -0.9617    2.0041    4.6080 C   0  0
   -0.4573    1.7088    3.3003 O   0  0
    3.3712    0.2565    1.1360 C   0  0
    2.0735   -1.1076   -2.2342 H   0  0
    1.3348   -2.1755   -1.0636 H   0  0
    3.1124   -1.7220   -0.8337 H   0  0
   -0.9659    3.2686   -0.0989 H   0  0
   -3.2648    3.5902    1.2495 H   0  0
   -3.6665    3.0460   -0.4146 H   0  0
   -7.2264    1.0827    1.0855 H   0  0
   -6.8262    1.6271    2.7499 H   0  0
   -8.0008    3.8465    1.3368 H   0  0
  -12.1270    2.1820    2.8757 H   0  0
  -13.5756    4.4433    2.4854 H   0  0
  -11.9353    6.2646    1.4904 H   0  0
    2.4623    2.7336    1.9482 H   0  0
    0.8082    3.3919    1.7092 H   0  0
    1.5144    0.9591    3.4008 H   0  0
    2.2873    2.7802    4.7801 H   0  0
    1.0486    3.9404    4.0733 H   0  0
   -0.0630    3.3160    6.1058 H   0  0
    0.6271    1.6195    6.0573 H   0  0
   -1.7081    2.8097    4.5449 H   0  0
   -1.4114    1.1006    5.0455 H   0  0
    4.0530    0.2779    0.2730 H   0  0
    3.3095   -0.7960    1.4499 H   0  0
    3.6570    0.9450    1.9449 H   0  0
  1  2  1  0
  2  6  1  0
  2  3  2  0
  3  4  1  0
  3 31  1  0
  4  5  1  0
  4 25  1  0
  5  6  2  0
  5  9  1  0
  6  7  1  0
  7  8  3  0
  9 10  1  0
 10 11  2  0
 10 12  1  0
 12 13  1  0
 13 14  1  0
 14 15  2  0
 14 16  1  0
 16 17  1  0
 17 18  1  0
 18 19  2  0
 18 20  1  0
 20 24  1  0
 20 21  2  0
 21 22  1  0
 22 23  2  0
 23 24  1  0
 25 26  1  0
 26 30  1  0
 26 27  1  0
 27 28  1  0
 28 29  1  0
 29 30  1  0
  1 32  1  0
  1 33  1  0
  1 34  1  0
  9 35  1  0
 12 36  1  0
 12 37  1  0
 16 38  1  0
 16 39  1  0
 17 40  1  0
 21 41  1  0
 22 42  1  0
 23 43  1  0
 25 44  1  0
 25 45  1  0
 26 46  1  0
 27 47  1  0
 27 48  1  0
 28 49  1  0
 28 50  1  0
 29 51  1  0
 29 52  1  0
 31 53  1  0
 31 54  1  0
 31 55  1  0
M  END
> <Name>
ZINC16618603

> <reference>
BDB50021148

> <quality>
0.734

> <status>
decoy

$$$$
ZINC04935612
  SciTegic06061311253D

 59 61  0  0  0  0            999 V2000
  -12.6248    6.0127    6.3307 C   0  0
  -12.4644    5.4377    4.9470 C   0  0
  -11.6443    6.0658    4.0283 C   0  0
  -11.4971    5.5383    2.7591 C   0  0
  -12.1692    4.3823    2.4087 C   0  0
  -12.9931    3.7569    3.3258 C   0  0
  -13.1369    4.2820    4.5965 C   0  0
  -12.0087    3.8073    1.0250 C   0  0
  -10.8416    2.1074   -0.2450 C   0  0
   -9.7068    1.0822   -0.1843 C   0  0
   -8.4756    2.5335    1.3113 C   0  0
   -9.6104    3.5587    1.2506 C   0  0
   -7.3084    0.8336    0.0413 C   0  0
   -6.0105    1.5993    0.0392 C   0  0
   -6.0219    2.8124    0.0458 O   0  0
   -4.8370    0.9365    0.0301 N   0  0
   -3.6304    1.6483    0.0282 N   0  0
   -2.5003    1.0100    0.0194 C   0  0
   -1.2309    1.7588    0.0174 C   0  0
   -0.0126    1.0758    0.0080 C   0  0
    1.1715    1.7826    0.0004 C   0  0
    1.1582    3.1670    0.0075 C   0  0
   -0.0406    3.8545    0.0226 C   0  0
   -1.2395    3.1603    0.0304 C   0  0
   -2.4180    3.8349    0.0452 O   0  0
   -2.3485    5.2622    0.0522 C   0  0
   -3.7431    5.8330    0.0685 C   0  0
   -4.6986    5.0934    0.0737 O   0  0
  -10.8865    2.8448    1.0353 N   0  3
   -8.4306    1.7962    0.0311 N   0  0
   -3.9239    7.1630    0.0774 O   0  5
  -12.3351    5.2001    7.0132 H   0  0
  -13.7069    6.1687    6.4517 H   0  0
  -12.0452    6.9321    6.5006 H   0  0
  -11.1089    6.9853    4.3073 H   0  0
  -10.8451    6.0385    2.0279 H   0  0
  -13.5342    2.8415    3.0445 H   0  0
  -13.7865    3.7801    5.3287 H   0  0
  -11.7926    4.6163    0.3117 H   0  0
  -12.9341    3.2902    0.7314 H   0  0
  -10.6576    2.8122   -1.0692 H   0  0
  -11.7989    1.5897   -0.4049 H   0  0
   -9.6612    0.5253   -1.1318 H   0  0
   -9.8838    0.3857    0.6485 H   0  0
   -7.5188    3.0522    1.4710 H   0  0
   -8.6586    1.8284    2.1355 H   0  0
   -9.4341    4.2559    0.4182 H   0  0
   -9.6554    4.1149    2.1986 H   0  0
   -7.3676    0.2096    0.9453 H   0  0
   -7.3619    0.1969   -0.8541 H   0  0
   -4.8273   -0.0934    0.0245 H   0  0
   -2.4900   -0.0899    0.0134 H   0  0
    0.0023   -0.0241    0.0067 H   0  0
    2.1306    1.2442   -0.0114 H   0  0
    2.1073    3.7230    0.0011 H   0  0
   -0.0428    4.9545    0.0284 H   0  0
   -1.8216    5.6092   -0.8489 H   0  0
   -1.8047    5.5986    0.9473 H   0  0
  -11.0288    2.1738    1.8037 H   0  0
  1  2  1  0
  2  7  2  0
  2  3  1  0
  3  4  2  0
  4  5  1  0
  5  6  2  0
  5  8  1  0
  6  7  1  0
  8 29  1  0
  9 10  1  0
  9 29  1  0
 10 30  1  0
 11 12  1  0
 11 30  1  0
 12 29  1  0
 13 14  1  0
 13 30  1  0
 14 15  2  0
 14 16  1  0
 16 17  1  0
 17 18  2  0
 18 19  1  0
 19 24  2  0
 19 20  1  0
 20 21  2  0
 21 22  1  0
 22 23  2  0
 23 24  1  0
 24 25  1  0
 25 26  1  0
 26 27  1  0
 27 28  2  0
 27 31  1  0
  1 32  1  0
  1 33  1  0
  1 34  1  0
  3 35  1  0
  4 36  1  0
  6 37  1  0
  7 38  1  0
  8 39  1  0
  8 40  1  0
  9 41  1  0
  9 42  1  0
 10 43  1  0
 10 44  1  0
 11 45  1  0
 11 46  1  0
 12 47  1  0
 12 48  1  0
 13 49  1  0
 13 50  1  0
 16 51  1  0
 18 52  1  0
 20 53  1  0
 21 54  1  0
 22 55  1  0
 23 56  1  0
 26 57  1  0
 26 58  1  0
 29 59  1  0
M  CHG  2  29   1  31  -1
M  END
> <Name>
ZINC04935612

> <reference>
BDB50021148

> <quality>
0.732

> <status>
decoy

$$$$
ZINC24110348
  SciTegic06061311253D

 50 52  0  0  0  0            999 V2000
   13.9935   -3.8271  -12.8710 C   0  0
   13.9786   -2.7234  -11.9079 N   0  0
   13.4354   -2.7608  -10.6635 C   0  0
   13.6473   -1.4948  -10.0953 C   0  0
   14.3316   -0.7182  -11.0489 C   0  0
   14.5224   -1.4490  -12.1124 N   0  0
   13.1543   -1.2569   -8.7388 C   0  0
   13.3067   -0.1795   -8.1908 O   0  0
   12.5220   -2.2785   -8.1152 N   0  0
   12.3675   -3.4720   -8.7420 C   0  0
   12.7946   -3.6996   -9.9494 N   0  0
   12.0075   -2.0967   -6.7556 C   0  0
   10.5683   -1.5814   -6.8195 C   0  0
   10.0391   -1.3944   -5.4210 C   0  0
   10.7410   -1.6473   -4.4706 O   0  0
    8.7879   -0.9469   -5.2311 O   0  0
    8.3451   -0.7908   -3.8571 C   0  0
    6.9263   -0.2830   -3.8412 C   0  0
    6.3458   -0.0733   -4.8846 O   0  0
    6.3028   -0.0618   -2.6669 N   0  0
    5.0340    0.3924   -2.6527 C   0  0
    4.4520    0.6025   -3.6988 O   0  0
    4.4105    0.6135   -1.4785 N   0  0
    3.0313    1.1072   -1.4630 C   0  0
    2.5647    1.2717   -0.0152 C   0  0
    1.1459    1.7795    0.0007 C   0  0
   -0.0126    1.0758    0.0080 C   0  0
   -1.2130    1.7610    0.0173 C   0  0
   -1.1962    3.1163    0.0303 C   0  0
    0.5548    3.4640    0.0154 S   0  0
   15.0637   -3.9216  -13.1072 H   0  0
   13.5317   -3.3727  -13.7600 H   0  0
   13.5209   -4.7682  -12.5533 H   0  0
   14.6509    0.3264  -10.9195 H   0  0
   11.8574   -4.2847   -8.2042 H   0  0
   12.0284   -3.0593   -6.2237 H   0  0
   12.6336   -1.3680   -6.2198 H   0  0
    9.9404   -2.3094   -7.3540 H   0  0
   10.5467   -0.6185   -7.3509 H   0  0
    8.9971   -0.0713   -3.3401 H   0  0
    8.3919   -1.7627   -3.3440 H   0  0
    6.7960   -0.2399   -1.7804 H   0  0
    4.9037    0.4354   -0.5920 H   0  0
    2.9839    2.0793   -1.9756 H   0  0
    2.3775    0.3884   -1.9787 H   0  0
    2.6115    0.2998    0.4979 H   0  0
    3.2167    1.9912    0.5018 H   0  0
    0.0023   -0.0241    0.0065 H   0  0
   -2.1677    1.2146    0.0142 H   0  0
   -2.0420    3.8195    0.0460 H   0  0
  1  2  1  0
  2  6  1  0
  2  3  1  0
  3 11  1  0
  3  4  2  0
  4  5  1  0
  4  7  1  0
  5  6  2  0
  7  8  2  0
  7  9  1  0
  9 10  1  0
  9 12  1  0
 10 11  2  0
 12 13  1  0
 13 14  1  0
 14 15  2  0
 14 16  1  0
 16 17  1  0
 17 18  1  0
 18 19  2  0
 18 20  1  0
 20 21  1  0
 21 22  2  0
 21 23  1  0
 23 24  1  0
 24 25  1  0
 25 26  1  0
 26 30  1  0
 26 27  2  0
 27 28  1  0
 28 29  2  0
 29 30  1  0
  1 31  1  0
  1 32  1  0
  1 33  1  0
  5 34  1  0
 10 35  1  0
 12 36  1  0
 12 37  1  0
 13 38  1  0
 13 39  1  0
 17 40  1  0
 17 41  1  0
 20 42  1  0
 23 43  1  0
 24 44  1  0
 24 45  1  0
 25 46  1  0
 25 47  1  0
 27 48  1  0
 28 49  1  0
 29 50  1  0
M  END
> <Name>
ZINC24110348

> <reference>
BDB50021148

> <quality>
0.730

> <status>
decoy

$$$$
ZINC24711508
  SciTegic06061311253D

 58 59  0  0  1  0            999 V2000
   -3.2469    5.6988    0.1791 C   0  0
   -2.1380    6.0855   -0.8016 C   0  0
   -1.2816    4.9195   -1.0569 N   0  3
   -0.5778    5.0540   -2.3393 C   0  0
   -0.2663    3.6643   -2.8982 C   0  0
   -0.3327    4.7119    0.0451 C   0  0  1  0  0  0
   -1.0403    4.9541    1.3799 C   0  0
   -1.1930    6.3948    1.5973 N   0  0
   -1.7262    6.9596    3.0598 S   0  0
   -1.6120    8.3753    3.0146 O   0  0
   -2.9583    6.3028    3.3241 O   0  0
   -0.5857    6.4010    4.2812 C   0  0
   -0.9147    5.3894    5.1128 C   0  0
   -0.0152    4.9650    6.0526 N   0  0
    1.1899    5.5530    6.1626 C   0  0
    1.9723    5.1628    7.0075 O   0  0
    1.5417    6.5668    5.3501 N   0  0
    0.6857    7.0109    4.4077 C   0  0
    1.0031    7.9284    3.6725 O   0  0
    2.8602    7.1899    5.4900 C   0  0
   -0.3700    3.8637    6.9512 C   0  0
    0.1866    3.2979    0.0012 C   0  0
   -0.6977    2.2402   -0.1076 C   0  0
   -0.2242    0.9422   -0.1539 C   0  0
    1.1337    0.6980   -0.0800 C   0  0
    2.0228    1.7571    0.0296 C   0  0
    1.5453    3.0593    0.0701 C   0  0
    3.3591    1.5197    0.0977 O   0  0
    3.7788    0.1545    0.0508 C   0  0
   -2.7994    5.3593    1.1249 H   0  0
   -3.8522    4.8875   -0.2515 H   0  0
   -3.8886    6.5715    0.3707 H   0  0
   -1.5327    6.8968   -0.3711 H   0  0
   -2.5863    6.4245   -1.7471 H   0  0
   -1.8873    4.0883   -1.1139 H   0  0
   -1.2137    5.6008   -3.0511 H   0  0
    0.3613    5.6062   -2.1873 H   0  0
   -1.2045    3.1110   -3.0519 H   0  0
    0.3697    3.1162   -2.1875 H   0  0
    0.2607    3.7643   -3.8585 H   0  0
    0.5075    5.4144   -0.0573 H   0  0
   -2.0325    4.4796    1.3605 H   0  0
   -0.4431    4.5221    2.1964 H   0  0
   -0.9687    7.0564    0.8405 H   0  0
   -1.9011    4.9087    5.0352 H   0  0
    3.5810    6.3665    5.3780 H   0  0
    2.9095    7.5274    6.5358 H   0  0
    3.0435    8.0071    4.7769 H   0  0
   -0.6309    3.0245    6.2896 H   0  0
   -1.2957    4.1858    7.4504 H   0  0
    0.4225    3.6014    7.6675 H   0  0
   -1.7797    2.4320   -0.1574 H   0  0
   -0.9291    0.1032   -0.2496 H   0  0
    1.5094   -0.3355   -0.1081 H   0  0
    2.2483    3.9009    0.1570 H   0  0
    3.3803   -0.2595   -0.8872 H   0  0
    3.2733   -0.3533    0.8854 H   0  0
    4.8715    0.0430    0.1109 H   0  0
  1  2  1  0
  2  3  1  0
  3  4  1  0
  3  6  1  0
  4  5  1  0
  6  7  1  0
  6 22  1  0
  7  8  1  0
  8  9  1  0
  9 10  2  0
  9 11  2  0
  9 12  1  0
 12 18  1  0
 12 13  2  0
 13 14  1  0
 14 15  1  0
 14 21  1  0
 15 16  2  0
 15 17  1  0
 17 18  1  0
 17 20  1  0
 18 19  2  0
 22 27  2  0
 22 23  1  0
 23 24  2  0
 24 25  1  0
 25 26  2  0
 26 27  1  0
 26 28  1  0
 28 29  1  0
  1 30  1  0
  1 31  1  0
  1 32  1  0
  2 33  1  0
  2 34  1  0
  3 35  1  0
  4 36  1  0
  4 37  1  0
  5 38  1  0
  5 39  1  0
  5 40  1  0
  6 41  1  0
  7 42  1  0
  7 43  1  0
  8 44  1  0
 13 45  1  0
 20 46  1  0
 20 47  1  0
 20 48  1  0
 21 49  1  0
 21 50  1  0
 21 51  1  0
 23 52  1  0
 24 53  1  0
 25 54  1  0
 27 55  1  0
 29 56  1  0
 29 57  1  0
 29 58  1  0
M  CHG  1   3   1
M  END
> <Name>
ZINC24711508

> <reference>
BDB50021148

> <quality>
0.715

> <status>
decoy

$$$$
ZINC15672519
  SciTegic06061311253D

 61 64  0  0  1  0            999 V2000
   -4.3232    0.5624    4.1047 C   0  0
   -3.7097    0.9213    2.7759 C   0  0
   -4.4452    0.8332    1.6872 N   0  0
   -3.9361    1.1423    0.4964 C   0  0
   -2.6055    1.5628    0.4194 C   0  0
   -1.8734    1.6393    1.5905 C   0  0
   -2.4505    1.3092    2.7359 N   0  0
   -0.4347    2.0870    1.5626 C   0  0  1  0  0  0
    0.3037    1.5166    2.7768 C   0  0
    2.3872    1.4430    1.5448 C   0  0
    1.7088    2.0112    0.2951 C   0  0
    0.2396    1.5706    0.2853 C   0  0  1  0  0  0
    0.1885    0.0376    0.2906 C   0  0
    0.9093   -0.4765    1.5401 C   0  0  2  0  0  0
   -0.0664   -1.2882    2.3945 C   0  0
    0.5862   -1.6736    3.6482 N   0  0
   -0.1166   -2.3105    4.6057 C   0  0
   -1.2636   -2.6437    4.3957 O   0  0
    0.5230   -2.6087    5.9374 C   0  0
   -0.4826   -3.3320    6.8355 C   0  0
    0.1667   -3.6347    8.1874 C   0  0
   -0.8238   -4.3471    9.0720 C   0  0
   -1.9349   -4.5880    8.6632 O   0  0
   -4.7672    1.0425   -0.7277 C   0  0
   -4.1963    1.2599   -1.9806 C   0  0
   -4.9734    1.1605   -3.1167 C   0  0
   -6.3190    0.8566   -3.0131 C   0  0
   -6.8922    0.6454   -1.7720 C   0  0
   -6.1235    0.7365   -0.6294 C   0  0
    1.4235    0.6547    2.3419 N   0  3
   -0.4715   -4.7140   10.3142 O   0  5
   -4.1981    1.4528    4.7383 H   0  0
   -3.6859   -0.2324    4.5196 H   0  0
   -5.3758    0.2525    4.0274 H   0  0
   -2.1521    1.8261   -0.5476 H   0  0
   -0.3988    3.1862    1.5858 H   0  0
   -0.3958    0.9242    3.3848 H   0  0
    0.6970    2.3438    3.3859 H   0  0
    3.2243    0.7963    1.2430 H   0  0
    2.7753    2.2698    2.1579 H   0  0
    2.2130    1.6292   -0.6048 H   0  0
    1.7631    3.1097    0.3137 H   0  0
   -0.2722    1.9670   -0.6040 H   0  0
    0.6886   -0.3517   -0.6085 H   0  0
   -0.8596   -0.2960    0.3073 H   0  0
    1.7525   -1.1085    1.2245 H   0  0
   -0.3701   -2.1926    1.8470 H   0  0
   -0.9545   -0.6783    2.6165 H   0  0
    1.5822   -1.4578    3.7979 H   0  0
    1.4048   -3.2485    5.7857 H   0  0
    0.8308   -1.6676    6.4166 H   0  0
   -1.3646   -2.6925    6.9879 H   0  0
   -0.7907   -4.2741    6.3584 H   0  0
    0.4745   -2.6936    8.6665 H   0  0
    1.0485   -4.2745    8.0357 H   0  0
   -3.1284    1.5102   -2.0636 H   0  0
   -4.5220    1.3232   -4.1065 H   0  0
   -6.9355    0.7826   -3.9211 H   0  0
   -7.9627    0.4044   -1.6956 H   0  0
   -6.5803    0.5679    0.3570 H   0  0
    1.9028    0.2832    3.1745 H   0  0
  1  2  1  0
  2  7  2  0
  2  3  1  0
  3  4  2  0
  4  5  1  0
  4 24  1  0
  5  6  2  0
  6  7  1  0
  6  8  1  0
  8 12  1  0
  8  9  1  0
  9 30  1  0
 10 11  1  0
 10 30  1  0
 11 12  1  0
 12 13  1  0
 13 14  1  0
 14 15  1  0
 14 30  1  0
 15 16  1  0
 16 17  1  0
 17 18  2  0
 17 19  1  0
 19 20  1  0
 20 21  1  0
 21 22  1  0
 22 23  2  0
 22 31  1  0
 24 29  2  0
 24 25  1  0
 25 26  2  0
 26 27  1  0
 27 28  2  0
 28 29  1  0
  1 32  1  0
  1 33  1  0
  1 34  1  0
  5 35  1  0
  8 36  1  0
  9 37  1  0
  9 38  1  0
 10 39  1  0
 10 40  1  0
 11 41  1  0
 11 42  1  0
 12 43  1  0
 13 44  1  0
 13 45  1  0
 14 46  1  0
 15 47  1  0
 15 48  1  0
 16 49  1  0
 19 50  1  0
 19 51  1  0
 20 52  1  0
 20 53  1  0
 21 54  1  0
 21 55  1  0
 25 56  1  0
 26 57  1  0
 27 58  1  0
 28 59  1  0
 29 60  1  0
 30 61  1  0
M  CHG  2  30   1  31  -1
M  END
> <Name>
ZINC15672519

> <reference>
BDB50021148

> <quality>
0.713

> <status>
decoy

$$$$
ZINC30779156
  SciTegic06061311253D

 47 49  0  0  1  0            999 V2000
    7.9700   -1.5015    0.4821 C   0  0
    8.8195   -1.2057   -0.6033 C   0  0
    8.6444    0.0952   -0.9118 C   0  0
    7.7160    0.6155   -0.0552 N   0  0
    7.3106   -0.3693    0.8005 C   0  0
    7.2608    1.9376   -0.0512 C   0  0
    8.1354    3.0031   -0.0599 C   0  0
    7.6408    4.2664   -0.0478 C   0  0
    5.9244    4.0259   -0.0323 S   0  0
    5.9005    2.2421   -0.0422 C   0  0
    4.7893    1.3644   -0.0363 C   0  0
    4.9651    0.1602   -0.0445 O   0  0
    3.5354    1.8632   -0.0217 O   0  0
    2.4620    0.9199   -0.0165 C   0  0
    1.1468    1.6555    0.0000 C   0  0
    1.1304    2.8682    0.0067 O   0  0
   -0.0111    0.9658    0.0074 N   0  0
   -1.2338    1.6498    0.0169 N   0  0
   -2.3917    0.9601    0.0186 C   0  0
   -2.3752   -0.2526    0.0119 O   0  0
   -3.7069    1.6958    0.0288 C   0  0
   -4.8562    0.6858    0.0288 C   0  0  2  0  0  0
   -4.8686   -0.0868   -1.3006 C   0  0
   -6.1961   -0.8695   -1.4437 C   0  0
   -7.3726    0.1477   -0.4621 S   0  0
   -7.8471   -0.6226    0.6336 O   0  0
   -8.3051    0.7576   -1.3440 O   0  0
   -6.2129    1.4339    0.1669 C   0  0
    7.8644   -2.4774    0.9785 H   0  0
    9.5006   -1.9077   -1.1065 H   0  0
    9.1600    0.6429   -1.7145 H   0  0
    6.5736   -0.2578    1.6095 H   0  0
    9.2217    2.8311   -0.0765 H   0  0
    8.1961    5.2159   -0.0478 H   0  0
    2.5363    0.2831    0.8773 H   0  0
    2.5198    0.2935   -0.9188 H   0  0
    0.0029   -0.0641    0.0061 H   0  0
   -1.2478    2.6797    0.0226 H   0  0
   -3.7792    2.3324   -0.8654 H   0  0
   -3.7699    2.3221    0.9309 H   0  0
   -4.7160   -0.0076    0.8711 H   0  0
   -4.0250   -0.7924   -1.3225 H   0  0
   -4.7708    0.6218   -2.1363 H   0  0
   -6.5155   -0.8990   -2.4959 H   0  0
   -6.1053   -1.8706   -0.9970 H   0  0
   -6.4328    1.6537    1.2221 H   0  0
   -6.2419    2.3174   -0.4877 H   0  0
  1  5  2  0
  1  2  1  0
  2  3  2  0
  3  4  1  0
  4  5  1  0
  4  6  1  0
  6 10  2  0
  6  7  1  0
  7  8  2  0
  8  9  1  0
  9 10  1  0
 10 11  1  0
 11 12  2  0
 11 13  1  0
 13 14  1  0
 14 15  1  0
 15 16  2  0
 15 17  1  0
 17 18  1  0
 18 19  1  0
 19 20  2  0
 19 21  1  0
 21 22  1  0
 22 28  1  0
 22 23  1  0
 23 24  1  0
 24 25  1  0
 25 26  2  0
 25 27  2  0
 25 28  1  0
  1 29  1  0
  2 30  1  0
  3 31  1  0
  5 32  1  0
  7 33  1  0
  8 34  1  0
 14 35  1  0
 14 36  1  0
 17 37  1  0
 18 38  1  0
 21 39  1  0
 21 40  1  0
 22 41  1  0
 23 42  1  0
 23 43  1  0
 24 44  1  0
 24 45  1  0
 28 46  1  0
 28 47  1  0
M  END
> <Name>
ZINC30779156

> <reference>
BDB50021148

> <quality>
0.711

> <status>
decoy

$$$$
ZINC11671007
  SciTegic06061311253D

 61 62  0  0  1  0            999 V2000
   -5.7230   -0.1932   -5.8448 C   0  0
   -4.8468    0.6118   -4.8830 C   0  0
   -5.5548    0.7935   -3.6133 N   0  0
   -6.5017    1.9000   -3.4544 C   0  0
   -5.7452    3.1626   -3.0365 C   0  0
   -5.2848   -0.2520   -2.3578 S   0  0
   -4.9733   -1.5113   -2.9377 O   0  0
   -6.3609   -0.0784   -1.4461 O   0  0
   -3.9168    0.2616   -1.5786 N   0  0
   -4.0029    1.1397   -0.4018 C   0  0
   -3.0800    2.3427   -0.6236 C   0  0
   -1.7164    1.1059   -2.2022 C   0  0
   -2.5834   -0.1479   -2.0452 C   0  0
   -0.7747    2.9824   -0.9963 C   0  0  2  0  0  0
   -1.1415    3.9140   -2.1532 C   0  0
    0.6174    2.4447   -1.2063 C   0  0
    0.7974    1.2493   -1.3039 O   0  0
    1.6616    3.2926   -1.2912 N   0  0
    2.9645    2.7909   -1.3823 C   0  0
    3.3010    1.6105   -0.7339 C   0  0
    4.5908    1.1109   -0.8294 C   0  0
    5.5477    1.7962   -1.5631 C   0  0
    5.2136    2.9785   -2.2065 C   0  0
    3.9227    3.4763   -2.1165 C   0  0
    6.1517    3.6491   -2.9256 O   0  0
    7.4610    3.0788   -2.9754 C   0  0
    4.9189   -0.0478   -0.1997 O   0  0
    6.2671   -0.5012   -0.3363 C   0  0
   -1.7186    1.8480   -0.9228 N   0  0
   -6.6641    0.3472   -6.0246 H   0  0
   -5.9440   -1.1769   -5.4050 H   0  0
   -5.1920   -0.3300   -6.7984 H   0  0
   -3.9061    0.0706   -4.7035 H   0  0
   -4.6257    1.5955   -5.3227 H   0  0
   -7.0175    2.0813   -4.4089 H   0  0
   -7.2408    1.6435   -2.6811 H   0  0
   -5.0064    3.4213   -3.8093 H   0  0
   -5.2288    2.9829   -2.0820 H   0  0
   -6.4556    3.9939   -2.9170 H   0  0
   -5.0386    1.4883   -0.2761 H   0  0
   -3.6816    0.5897    0.4950 H   0  0
   -3.0550    2.9617    0.2853 H   0  0
   -3.4493    2.9393   -1.4708 H   0  0
   -0.6870    0.8127   -2.4559 H   0  0
   -2.1292    1.7433   -2.9980 H   0  0
   -2.6713   -0.6585   -3.0155 H   0  0
   -2.1249   -0.8226   -1.3073 H   0  0
   -0.8248    3.5544   -0.0581 H   0  0
   -1.1037    3.3563   -3.1006 H   0  0
   -0.4282    4.7504   -2.1921 H   0  0
   -2.1576    4.3068   -2.0005 H   0  0
    1.5004    4.3099   -1.2890 H   0  0
    2.5445    1.0716   -0.1445 H   0  0
    6.5721    1.4018   -1.6347 H   0  0
    3.6579    4.4141   -2.6268 H   0  0
    7.3413    2.0647   -3.3845 H   0  0
    7.7971    2.9843   -1.9323 H   0  0
    8.1631    3.6771   -3.5746 H   0  0
    6.9063    0.3125    0.0368 H   0  0
    6.4502   -0.6061   -1.4159 H   0  0
    6.4557   -1.4429    0.2000 H   0  0
  1  2  1  0
  2  3  1  0
  3  4  1  0
  3  6  1  0
  4  5  1  0
  6  7  2  0
  6  8  2  0
  6  9  1  0
  9 13  1  0
  9 10  1  0
 10 11  1  0
 11 29  1  0
 12 13  1  0
 12 29  1  0
 14 15  1  0
 14 16  1  0
 14 29  1  0
 16 17  2  0
 16 18  1  0
 18 19  1  0
 19 24  2  0
 19 20  1  0
 20 21  2  0
 21 22  1  0
 21 27  1  0
 22 23  2  0
 23 24  1  0
 23 25  1  0
 25 26  1  0
 27 28  1  0
  1 30  1  0
  1 31  1  0
  1 32  1  0
  2 33  1  0
  2 34  1  0
  4 35  1  0
  4 36  1  0
  5 37  1  0
  5 38  1  0
  5 39  1  0
 10 40  1  0
 10 41  1  0
 11 42  1  0
 11 43  1  0
 12 44  1  0
 12 45  1  0
 13 46  1  0
 13 47  1  0
 14 48  1  0
 15 49  1  0
 15 50  1  0
 15 51  1  0
 18 52  1  0
 20 53  1  0
 22 54  1  0
 24 55  1  0
 26 56  1  0
 26 57  1  0
 26 58  1  0
 28 59  1  0
 28 60  1  0
 28 61  1  0
M  END
> <Name>
ZINC11671007

> <reference>
BDB50021148

> <quality>
0.711

> <status>
decoy

$$$$
ZINC16148436
  SciTegic06061311253D

 50 51  0  0  0  0            999 V2000
   -0.7993   14.3277    2.7698 C   0  0
   -0.4424   13.7719    1.5027 O   0  0
   -0.7550   12.4655    1.2914 C   0  0
   -1.3921   11.7355    2.2841 C   0  0
   -1.7096   10.4086    2.0696 C   0  0
   -1.3915    9.8059    0.8613 C   0  0
   -0.7546   10.5357   -0.1311 C   0  0
   -0.4319   11.8614    0.0856 C   0  0
   -0.3506    9.7702   -1.6658 S   0  0
    0.2087   10.7835   -2.4903 O   0  0
   -1.4891    9.0139   -2.0546 O   0  0
    0.8609    8.6817   -1.3661 N   0  5
    0.6530    7.6343   -0.4591 N   0  0
    0.8066    6.3564   -0.8586 C   0  0
    1.1855    6.1140   -1.9882 O   0  0
    0.5148    5.2510    0.0751 C   0  0
    0.2105    5.5252    1.4107 C   0  0
   -0.0628    4.4883    2.2830 C   0  0
   -0.0402    3.1718    1.8303 C   0  0
    0.2681    2.8956    0.5009 C   0  0
    0.5421    3.9289   -0.3754 C   0  0
    0.2940    1.6083    0.0629 O   0  0
    0.6118    1.3979   -1.3144 C   0  0
   -0.3147    2.1546    2.6885 O   0  0
    0.7886    1.5909    3.4006 C   0  0
   -0.3596    4.7546    3.5833 O   0  0
   -0.4737    6.1299    3.9541 C   0  0
   -1.7045    8.4996    0.6499 O   0  0
   -2.4693    7.8435    1.6632 C   0  0
   -0.3060   13.7050    3.5306 H   0  0
   -1.8856   14.1893    2.8732 H   0  0
   -0.5147   15.3859    2.8657 H   0  0
   -1.6444   12.2135    3.2422 H   0  0
   -2.2147    9.8297    2.8568 H   0  0
    0.0813   12.4378   -0.6982 H   0  0
    0.3827    7.8410    0.5131 H   0  0
    0.1884    6.5654    1.7679 H   0  0
    0.7814    3.7104   -1.4266 H   0  0
    1.5959    1.8610   -1.4789 H   0  0
   -0.1301    1.9673   -1.8934 H   0  0
    0.6132    0.3338   -1.5930 H   0  0
    1.2566    2.4196    3.9521 H   0  0
    1.5039    1.2456    2.6396 H   0  0
    0.4880    0.7747    4.0741 H   0  0
   -1.2497    6.5618    3.3050 H   0  0
    0.4853    6.6012    3.6930 H   0  0
   -0.7148    6.2649    5.0188 H   0  0
   -3.3939    8.4278    1.7798 H   0  0
   -1.8920    7.9360    2.5950 H   0  0
   -2.6825    6.7918    1.4214 H   0  0
  1  2  1  0
  2  3  1  0
  3  8  2  0
  3  4  1  0
  4  5  2  0
  5  6  1  0
  6  7  2  0
  6 28  1  0
  7  8  1  0
  7  9  1  0
  9 10  2  0
  9 11  2  0
  9 12  1  0
 12 13  1  0
 13 14  1  0
 14 15  2  0
 14 16  1  0
 16 21  2  0
 16 17  1  0
 17 18  2  0
 18 19  1  0
 18 26  1  0
 19 20  2  0
 19 24  1  0
 20 21  1  0
 20 22  1  0
 22 23  1  0
 24 25  1  0
 26 27  1  0
 28 29  1  0
  1 30  1  0
  1 31  1  0
  1 32  1  0
  4 33  1  0
  5 34  1  0
  8 35  1  0
 13 36  1  0
 17 37  1  0
 21 38  1  0
 23 39  1  0
 23 40  1  0
 23 41  1  0
 25 42  1  0
 25 43  1  0
 25 44  1  0
 27 45  1  0
 27 46  1  0
 27 47  1  0
 29 48  1  0
 29 49  1  0
 29 50  1  0
M  CHG  1  12  -1
M  END
> <Name>
ZINC16148436

> <reference>
BDB50021148

> <quality>
0.705

> <status>
decoy

$$$$
ZINC28322883
  SciTegic06061311253D

 58 59  0  0  0  0            999 V2000
    7.2800   11.1232   -1.3335 C   0  0
    6.0382   10.4248   -1.2227 O   0  0
    5.3479   10.6582    0.0066 C   0  0
    4.0396    9.8650    0.0153 C   0  0
    4.3381    8.4307    0.0047 N   0  0
    3.3327    7.5331    0.0098 C   0  0
    2.1809    7.9128    0.0233 O   0  0
    3.6397    6.0578   -0.0011 C   0  0
    2.3870    5.2982    0.0072 N   0  0
    2.4159    3.9508   -0.0003 C   0  0
    3.4816    3.3656   -0.0140 O   0  0
    1.1543    3.1859    0.0081 C   0  0
   -0.0725    3.8542    0.0234 C   0  0
   -1.2471    3.1340    0.0308 C   0  0
   -1.2179    1.7489    0.0173 C   0  0
   -0.0126    1.0758    0.0080 C   0  0
    1.1796    1.7848    0.0004 C   0  0
    2.3647    1.1248   -0.0149 O   0  0
    2.3120   -0.3032   -0.0226 C   0  0
   -2.7934    3.9785    0.0495 S   0  0
   -3.7416    3.0773    0.6047 O   0  0
   -2.5478    5.2633    0.6046 O   0  0
   -3.2379    4.2211   -1.5272 N   0  0
   -2.8207    5.4389   -2.1853 C   0  0
   -3.8745    6.5440   -1.9628 C   0  0
   -5.0905    6.2529   -2.7376 C   0  0
   -5.8004    4.9646   -2.3326 C   0  0
   -5.1729    3.7990   -3.0566 C   0  0
   -4.0487    3.1878   -2.2008 C   0  0
    7.9130   10.8101   -0.4901 H   0  0
    7.0669   12.1973   -1.2286 H   0  0
    7.7764   10.9153   -2.2928 H   0  0
    5.1260   11.7310    0.1059 H   0  0
    5.9779   10.3346    0.8483 H   0  0
    3.4663   10.1130    0.9207 H   0  0
    3.4477   10.1222   -0.8755 H   0  0
    5.3163    8.1083   -0.0066 H   0  0
    4.2127    5.8091   -0.9065 H   0  0
    4.2307    5.7986    0.8897 H   0  0
    1.4842    5.7939    0.0188 H   0  0
   -0.1006    4.9538    0.0295 H   0  0
   -2.1607    1.1822    0.0140 H   0  0
    0.0024   -0.0241    0.0066 H   0  0
    1.7234   -0.5862   -0.9077 H   0  0
    1.7407   -0.5965    0.8705 H   0  0
    3.3100   -0.7656   -0.0349 H   0  0
   -1.8555    5.7660   -1.7712 H   0  0
   -2.7090    5.2530   -3.2637 H   0  0
   -3.4624    7.5123   -2.2830 H   0  0
   -4.1281    6.5964   -0.8937 H   0  0
   -5.7908    7.0935   -2.6240 H   0  0
   -4.8245    6.1901   -3.8031 H   0  0
   -6.8653    5.0315   -2.6000 H   0  0
   -5.7025    4.8172   -1.2469 H   0  0
   -5.9395    3.0346   -3.2513 H   0  0
   -4.7554    4.1444   -4.0139 H   0  0
   -3.3950    2.5818   -2.8453 H   0  0
   -4.4933    2.5273   -1.4418 H   0  0
  1  2  1  0
  2  3  1  0
  3  4  1  0
  4  5  1  0
  5  6  1  0
  6  7  2  0
  6  8  1  0
  8  9  1  0
  9 10  1  0
 10 11  2  0
 10 12  1  0
 12 17  2  0
 12 13  1  0
 13 14  2  0
 14 15  1  0
 14 20  1  0
 15 16  2  0
 16 17  1  0
 17 18  1  0
 18 19  1  0
 20 21  2  0
 20 22  2  0
 20 23  1  0
 23 29  1  0
 23 24  1  0
 24 25  1  0
 25 26  1  0
 26 27  1  0
 27 28  1  0
 28 29  1  0
  1 30  1  0
  1 31  1  0
  1 32  1  0
  3 33  1  0
  3 34  1  0
  4 35  1  0
  4 36  1  0
  5 37  1  0
  8 38  1  0
  8 39  1  0
  9 40  1  0
 13 41  1  0
 15 42  1  0
 16 43  1  0
 19 44  1  0
 19 45  1  0
 19 46  1  0
 24 47  1  0
 24 48  1  0
 25 49  1  0
 25 50  1  0
 26 51  1  0
 26 52  1  0
 27 53  1  0
 27 54  1  0
 28 55  1  0
 28 56  1  0
 29 57  1  0
 29 58  1  0
M  END
> <Name>
ZINC28322883

> <reference>
BDB50021148

> <quality>
0.704

> <status>
decoy

$$$$
ZINC24892400
  SciTegic06061311253D

 52 53  0  0  0  0            999 V2000
   -1.0406    5.1452   -3.7083 C   0  0
   -1.8223    4.8653   -2.4231 C   0  0
   -1.8789    3.4200   -2.1909 N   0  0
   -2.9209    2.6152   -2.8334 C   0  0
   -4.1920    2.6535   -1.9827 C   0  0
   -0.7650    2.6959   -1.2023 S   0  0
   -0.7005    1.3315   -1.5940 O   0  0
    0.3779    3.5402   -1.1914 O   0  0
   -1.4247    2.7202    0.4314 C   0  0
   -1.2385    3.7311    1.3795 C   0  0
   -1.9252    3.3538    2.5141 C   0  0
   -2.5083    2.1332    2.2593 N   0  0
   -2.1974    1.7602    0.9937 C   0  0
   -3.3280    1.3648    3.1995 C   0  0
   -2.0135    4.1120    3.7663 C   0  0
   -2.5700    3.6266    4.7338 O   0  0
   -1.4782    5.3464    3.8457 N   0  0
   -1.5058    6.0449    5.0596 C   0  0
   -2.2840    5.5828    6.1105 C   0  0
   -2.3051    6.2706    7.3094 C   0  0
   -1.5609    7.4261    7.4617 C   0  0
   -0.7869    7.8972    6.4178 C   0  0
   -0.7551    7.2104    5.2131 C   0  0
    0.0273    7.6855    4.1550 N   0  0
    1.4802    8.4180    4.4634 S   0  0
    2.0371    8.6728    3.1811 O   0  0
    1.1668    9.4891    5.3430 O   0  0
    2.4601    7.1626    5.3319 C   0  0
   -1.5421    4.6575   -4.5572 H   0  0
   -0.0187    4.7500   -3.6106 H   0  0
   -0.9977    6.2304   -3.8832 H   0  0
   -1.3200    5.3530   -1.5747 H   0  0
   -2.8442    5.2605   -2.5207 H   0  0
   -3.1362    3.0234   -3.8319 H   0  0
   -2.5758    1.5751   -2.9290 H   0  0
   -4.5392    3.6929   -1.8870 H   0  0
   -3.9783    2.2455   -0.9838 H   0  0
   -4.9748    2.0494   -2.4646 H   0  0
   -0.6543    4.6535    1.2454 H   0  0
   -2.5199    0.8298    0.5034 H   0  0
   -4.1081    2.0865    3.4836 H   0  0
   -2.6687    1.2753    4.0755 H   0  0
   -3.7209    0.4033    2.8373 H   0  0
   -1.0489    5.7761    3.0139 H   0  0
   -2.8844    4.6690    5.9900 H   0  0
   -2.9158    5.8976    8.1448 H   0  0
   -1.5849    7.9720    8.4164 H   0  0
   -0.1962    8.8167    6.5424 H   0  0
   -0.3003    7.5797    3.1842 H   0  0
    2.6312    6.2760    4.7036 H   0  0
    1.9943    6.8732    6.2855 H   0  0
    3.4419    7.6026    5.5610 H   0  0
  1  2  1  0
  2  3  1  0
  3  4  1  0
  3  6  1  0
  4  5  1  0
  6  7  2  0
  6  8  2  0
  6  9  1  0
  9 13  2  0
  9 10  1  0
 10 11  2  0
 11 12  1  0
 11 15  1  0
 12 13  1  0
 12 14  1  0
 15 16  2  0
 15 17  1  0
 17 18  1  0
 18 23  2  0
 18 19  1  0
 19 20  2  0
 20 21  1  0
 21 22  2  0
 22 23  1  0
 23 24  1  0
 24 25  1  0
 25 26  2  0
 25 27  2  0
 25 28  1  0
  1 29  1  0
  1 30  1  0
  1 31  1  0
  2 32  1  0
  2 33  1  0
  4 34  1  0
  4 35  1  0
  5 36  1  0
  5 37  1  0
  5 38  1  0
 10 39  1  0
 13 40  1  0
 14 41  1  0
 14 42  1  0
 14 43  1  0
 17 44  1  0
 19 45  1  0
 20 46  1  0
 21 47  1  0
 22 48  1  0
 24 49  1  0
 28 50  1  0
 28 51  1  0
 28 52  1  0
M  END
> <Name>
ZINC24892400

> <reference>
BDB50021148

> <quality>
0.703

> <status>
decoy

$$$$
ZINC31497876
  SciTegic06061311253D

 53 54  0  0  1  0            999 V2000
    3.6214    4.8332   13.4095 C   0  0
    2.9977    4.2613   12.1347 C   0  0
    1.5448    4.1717   12.2997 N   0  0
    0.9521    2.9991   12.9478 C   0  0
    0.7557    1.8893   11.9130 C   0  0
    0.5724    5.3958   11.7535 S   0  0
    1.3780    6.5656   11.7097 O   0  0
   -0.6299    5.3267   12.5078 O   0  0
    0.1439    5.0168   10.0870 C   0  0
   -0.9675    4.2774    9.6705 C   0  0
   -0.9227    4.2196    8.2937 C   0  0
    0.1981    4.9069    7.8860 N   0  0
    0.8330    5.3894    8.9819 C   0  0
   -1.8897    3.5434    7.4225 C   0  0
   -2.8424    2.9616    7.9070 O   0  0
   -1.7231    3.5663    6.0852 N   0  0
   -2.6889    2.8909    5.2150 C   0  0  1  0  0  0
   -3.8667    3.8271    4.9371 C   0  0
   -2.0220    2.5230    3.9147 C   0  0
   -2.2946    1.3061    3.3182 C   0  0
   -1.6825    0.9683    2.1257 C   0  0
   -0.7978    1.8475    1.5296 C   0  0
   -0.5212    3.0621    2.1288 C   0  0
   -1.1373    3.4021    3.3186 C   0  0
   -0.0172    1.4168    0.0098 S   0  0
    0.0021   -0.0041    0.0020 O   0  0
    1.1953    2.1578    0.0022 O   0  0
   -1.1345    2.0336   -1.2793 C   0  0
    3.3896    4.1748   14.2597 H   0  0
    3.2123    5.8362   13.6011 H   0  0
    4.7124    4.9008   13.2863 H   0  0
    3.2298    4.9205   11.2852 H   0  0
    3.4068    3.2583   11.9431 H   0  0
    1.6217    2.6426   13.7444 H   0  0
   -0.0214    3.2714   13.3816 H   0  0
    1.7285    1.6149   11.4790 H   0  0
    0.0862    2.2443   11.1157 H   0  0
    0.3107    1.0085   12.3990 H   0  0
   -1.7332    3.8268   10.3191 H   0  0
    0.5034    5.0334    6.9105 H   0  0
    1.7570    5.9862    8.9751 H   0  0
   -0.9167    4.0587    5.6751 H   0  0
   -3.0541    1.9793    5.7105 H   0  0
   -3.5025    4.7390    4.4413 H   0  0
   -4.3544    4.0961    5.8857 H   0  0
   -4.5923    3.3206    4.2837 H   0  0
   -2.9986    0.6066    3.7925 H   0  0
   -1.8994   -0.0001    1.6511 H   0  0
    0.1892    3.7581    1.6588 H   0  0
   -0.9236    4.3722    3.7911 H   0  0
   -1.2449    3.1271   -1.2328 H   0  0
   -2.1185    1.5442   -1.2329 H   0  0
   -0.6872    1.7868   -2.2535 H   0  0
  1  2  1  0
  2  3  1  0
  3  4  1  0
  3  6  1  0
  4  5  1  0
  6  7  2  0
  6  8  2  0
  6  9  1  0
  9 13  2  0
  9 10  1  0
 10 11  2  0
 11 12  1  0
 11 14  1  0
 12 13  1  0
 14 15  2  0
 14 16  1  0
 16 17  1  0
 17 18  1  0
 17 19  1  0
 19 24  2  0
 19 20  1  0
 20 21  2  0
 21 22  1  0
 22 23  2  0
 22 25  1  0
 23 24  1  0
 25 26  2  0
 25 27  2  0
 25 28  1  0
  1 29  1  0
  1 30  1  0
  1 31  1  0
  2 32  1  0
  2 33  1  0
  4 34  1  0
  4 35  1  0
  5 36  1  0
  5 37  1  0
  5 38  1  0
 10 39  1  0
 12 40  1  0
 13 41  1  0
 16 42  1  0
 17 43  1  0
 18 44  1  0
 18 45  1  0
 18 46  1  0
 20 47  1  0
 21 48  1  0
 23 49  1  0
 24 50  1  0
 28 51  1  0
 28 52  1  0
 28 53  1  0
M  END
> <Name>
ZINC31497876

> <reference>
BDB50021148

> <quality>
0.703

> <status>
decoy

$$$$
ZINC11437659
  SciTegic06061311253D

 36 36  0  0  0  0            999 V2000
   -4.3383    8.1847  -11.1286 C   0  0
   -4.3319    8.7134   -9.9301 C   0  0
   -4.4480    7.8288   -8.7156 C   0  0
   -3.3193    8.0827   -7.8169 N   0  0
   -3.2133    7.4012   -6.6589 C   0  0
   -4.0524    6.5777   -6.3610 O   0  0
   -2.0523    7.6623   -5.7344 C   0  0
   -2.1641    6.8099   -4.5643 O   0  0
   -1.2011    6.9203   -3.6357 C   0  0
   -0.2948    7.7032   -3.7954 O   0  0
   -1.2504    6.0677   -2.3941 C   0  0
   -0.0960    6.3737   -1.5454 N   0  5
   -0.0744    5.8761    0.0339 S   0  0
   -1.3194    6.2634    0.5989 O   0  0
    1.1710    6.2953    0.5747 O   0  0
   -0.0519    4.1142    0.0247 C   0  0
   -1.2422    3.4067    0.0323 C   0  0
   -1.2244    2.0228    0.0189 C   0  0
   -0.0162    1.3468    0.0094 C   0  0
    1.1730    2.0554    0.0019 C   0  0
    1.1544    3.4384    0.0095 C   0  0
    2.7794    4.4055   -0.0014 Br  0  0
    0.0021   -0.0041    0.0020 F   0  0
   -2.4207    4.0671    0.0467 F   0  0
   -4.4284    7.0950  -11.2485 H   0  0
   -4.2536    8.8304  -12.0151 H   0  0
   -4.2418    9.8031   -9.8102 H   0  0
   -5.3899    8.0475   -8.1912 H   0  0
   -4.4379    6.7738   -9.0267 H   0  0
   -2.6067    8.7820   -8.0700 H   0  0
   -1.1100    7.4435   -6.2581 H   0  0
   -2.0615    8.7167   -5.4212 H   0  0
   -1.2254    5.0049   -2.6766 H   0  0
   -2.1776    6.2784   -1.8410 H   0  0
   -2.1697    1.4603    0.0158 H   0  0
    2.1330    1.5184   -0.0101 H   0  0
  1  2  2  0
  2  3  1  0
  3  4  1  0
  4  5  1  0
  5  6  2  0
  5  7  1  0
  7  8  1  0
  8  9  1  0
  9 10  2  0
  9 11  1  0
 11 12  1  0
 12 13  1  0
 13 14  2  0
 13 15  2  0
 13 16  1  0
 16 21  2  0
 16 17  1  0
 17 18  2  0
 17 24  1  0
 18 19  1  0
 19 20  2  0
 19 23  1  0
 20 21  1  0
 21 22  1  0
  1 25  1  0
  1 26  1  0
  2 27  1  0
  3 28  1  0
  3 29  1  0
  4 30  1  0
  7 31  1  0
  7 32  1  0
 11 33  1  0
 11 34  1  0
 18 35  1  0
 20 36  1  0
M  CHG  1  12  -1
M  END
> <Name>
ZINC11437659

> <reference>
BDB50021148

> <quality>
0.702

> <status>
decoy

$$$$
ZINC24204519
  SciTegic06061311253D

 58 61  0  0  1  0            999 V2000
   -1.8128    1.3168   -0.6793 C   0  0
   -1.5724    2.7251   -0.4202 O   0  0
   -0.3114    3.1638   -0.5594 C   0  0
    0.5624    2.3964   -0.8870 O   0  0
    0.0142    4.6134   -0.3072 C   0  0  2  0  0  0
   -0.7603    5.4582   -1.2309 C   0  0
   -1.3580    6.1102   -1.9437 N   0  0
    1.4867    4.8437   -0.5306 C   0  0
    2.2694    5.3970    0.4986 C   0  0
    3.5600    5.6049    0.3201 N   0  0
    4.1266    5.2864   -0.8505 C   0  0
    5.4986    5.4954   -1.0709 C   0  0
    6.0481    5.1617   -2.2707 C   0  0
    5.2690    4.6141   -3.2878 C   0  0
    3.9369    4.3977   -3.1098 C   0  0
    3.3343    4.7297   -1.8845 C   0  0
    2.0272    4.5214   -1.6806 N   0  0
    1.6804    5.7261    1.7101 N   0  0
    2.4621    6.4114    2.7424 C   0  0
    1.6215    6.5451    4.0138 C   0  0  2  0  0  0
    2.4188    7.3069    5.0745 C   0  0  2  0  0  0
    2.6933    8.7612    4.6205 C   0  0
    4.1487    9.0237    5.0537 C   0  0
    4.6131    7.8429    5.7291 O   0  0
    3.8521    6.7322    5.2077 C   0  0
    1.2845    5.2083    4.5209 N   0  0
    0.7084    5.2868    5.8712 C   0  0
    0.3176    3.8813    6.3360 C   0  0
    1.4669    3.0315    6.2862 O   0  0
    2.0531    2.9316    4.9856 C   0  0
    2.4614    4.3274    4.5071 C   0  0
   -1.1544    0.7592    0.0031 H   0  0
   -1.4716    1.1282   -1.7079 H   0  0
   -2.8676    1.0354   -0.5444 H   0  0
   -0.2441    4.8721    0.7303 H   0  0
    6.1260    5.9269   -0.2771 H   0  0
    7.1224    5.3267   -2.4397 H   0  0
    5.7371    4.3529   -4.2484 H   0  0
    3.3345    3.9646   -3.9219 H   0  0
    0.6934    5.4887    1.8842 H   0  0
    3.3691    5.8293    2.9627 H   0  0
    2.7464    7.4120    2.3848 H   0  0
    0.6963    7.0946    3.7856 H   0  0
    1.8238    7.2344    5.9968 H   0  0
    2.6044    8.8395    3.5269 H   0  0
    2.0141    9.4548    5.1378 H   0  0
    4.1838    9.8828    5.7398 H   0  0
    4.7713    9.2146    4.1672 H   0  0
    3.8594    5.8955    5.9218 H   0  0
    4.2357    6.4369    4.2199 H   0  0
   -0.1848    5.9286    5.8539 H   0  0
    1.4517    5.7085    6.5638 H   0  0
   -0.0599    3.9275    7.3682 H   0  0
   -0.4645    3.4791    5.6753 H   0  0
    2.9420    2.2854    5.0319 H   0  0
    1.3223    2.5030    4.2840 H   0  0
    2.8595    4.2622    3.4838 H   0  0
    3.2332    4.7333    5.1775 H   0  0
  1  2  1  0
  2  3  1  0
  3  4  2  0
  3  5  1  0
  5  6  1  0
  5  8  1  0
  6  7  3  0
  8 17  1  0
  8  9  2  0
  9 10  1  0
  9 18  1  0
 10 11  2  0
 11 16  1  0
 11 12  1  0
 12 13  2  0
 13 14  1  0
 14 15  2  0
 15 16  1  0
 16 17  2  0
 18 19  1  0
 19 20  1  0
 20 21  1  0
 20 26  1  0
 21 25  1  0
 21 22  1  0
 22 23  1  0
 23 24  1  0
 24 25  1  0
 26 31  1  0
 26 27  1  0
 27 28  1  0
 28 29  1  0
 29 30  1  0
 30 31  1  0
  1 32  1  0
  1 33  1  0
  1 34  1  0
  5 35  1  0
 12 36  1  0
 13 37  1  0
 14 38  1  0
 15 39  1  0
 18 40  1  0
 19 41  1  0
 19 42  1  0
 20 43  1  0
 21 44  1  0
 22 45  1  0
 22 46  1  0
 23 47  1  0
 23 48  1  0
 25 49  1  0
 25 50  1  0
 27 51  1  0
 27 52  1  0
 28 53  1  0
 28 54  1  0
 30 55  1  0
 30 56  1  0
 31 57  1  0
 31 58  1  0
M  END
> <Name>
ZINC24204519

> <reference>
BDB50021148

> <quality>
0.698

> <status>
decoy

$$$$
ZINC31149479
  SciTegic06061311253D

 53 54  0  0  0  0            999 V2000
   -1.8106    4.6400   -1.4625 C   0  0
   -2.1740    3.2346   -1.2649 N   0  0
   -3.4839    2.7479   -1.7045 C   0  0
   -1.1039    2.1961   -0.5445 S   0  0
   -1.4511    0.8888   -0.9798 O   0  0
    0.1914    2.7460   -0.7423 O   0  0
   -1.4139    2.2486    1.1892 C   0  0
   -0.7407    3.1590    1.9830 C   0  0
   -0.9839    3.2086    3.3429 C   0  0
   -1.8959    2.3372    3.9161 C   0  0
   -2.5702    1.4160    3.1180 C   0  0
   -2.3251    1.3759    1.7532 C   0  0
   -3.4940    0.5325    3.6921 N   0  0
   -3.7688   -0.6410    3.0888 C   0  0
   -3.1449   -0.9777    2.1046 O   0  0
   -4.8512   -1.5348    3.6370 C   0  0
   -4.9573   -2.7746    2.7870 C   0  0
   -5.8851   -2.8327    1.7637 C   0  0
   -5.9857   -3.9671    0.9807 C   0  0
   -5.1560   -5.0525    1.2192 C   0  0
   -4.2224   -4.9983    2.2470 C   0  0
   -4.1205   -3.8534    3.0286 C   0  0
   -3.2046   -3.7933    4.0321 O   0  0
   -3.6235   -4.2472    5.3207 C   0  0
   -3.4063   -6.0613    2.4843 O   0  0
   -2.1572   -6.0876    1.7908 C   0  0
   -5.2561   -6.1685    0.4484 O   0  0
   -6.2381   -6.1541   -0.5896 C   0  0
   -2.1324    2.3814    5.2544 O   0  0
   -2.6058    5.2101   -0.9599 H   0  0
   -1.9267    4.8119   -2.5428 H   0  0
   -0.8068    4.9042   -1.0983 H   0  0
   -3.5322    2.9965   -2.7750 H   0  0
   -4.2113    3.3946   -1.1921 H   0  0
   -3.6588    1.6793   -1.5108 H   0  0
   -0.0097    3.8456    1.5311 H   0  0
   -0.4532    3.9401    3.9701 H   0  0
   -2.8559    0.6497    1.1200 H   0  0
   -3.9630    0.7799    4.5751 H   0  0
   -5.8119   -0.9992    3.6244 H   0  0
   -4.6036   -1.8194    4.6703 H   0  0
   -6.5450   -1.9737    1.5722 H   0  0
   -6.7249   -4.0092    0.1672 H   0  0
   -3.9556   -5.2876    5.1892 H   0  0
   -4.5029   -3.6439    5.5903 H   0  0
   -2.8300   -4.1679    6.0784 H   0  0
   -1.6350   -5.1573    2.0589 H   0  0
   -2.3979   -6.0423    0.7184 H   0  0
   -1.5543   -6.9751    2.0336 H   0  0
   -6.0023   -5.2887   -1.2263 H   0  0
   -7.2034   -5.9593   -0.0994 H   0  0
   -6.2591   -7.0892   -1.1685 H   0  0
   -2.4083    3.3152    5.4334 H   0  0
  1  2  1  0
  2  3  1  0
  2  4  1  0
  4  5  2  0
  4  6  2  0
  4  7  1  0
  7 12  2  0
  7  8  1  0
  8  9  2  0
  9 10  1  0
 10 11  2  0
 10 29  1  0
 11 12  1  0
 11 13  1  0
 13 14  1  0
 14 15  2  0
 14 16  1  0
 16 17  1  0
 17 22  2  0
 17 18  1  0
 18 19  2  0
 19 20  1  0
 20 21  2  0
 20 27  1  0
 21 22  1  0
 21 25  1  0
 22 23  1  0
 23 24  1  0
 25 26  1  0
 27 28  1  0
  1 30  1  0
  1 31  1  0
  1 32  1  0
  3 33  1  0
  3 34  1  0
  3 35  1  0
  8 36  1  0
  9 37  1  0
 12 38  1  0
 13 39  1  0
 16 40  1  0
 16 41  1  0
 18 42  1  0
 19 43  1  0
 24 44  1  0
 24 45  1  0
 24 46  1  0
 26 47  1  0
 26 48  1  0
 26 49  1  0
 28 50  1  0
 28 51  1  0
 28 52  1  0
 29 53  1  0
M  END
> <Name>
ZINC31149479

> <reference>
BDB50021148

> <quality>
0.696

> <status>
decoy

$$$$
ZINC30778556
  SciTegic06061311253D

 48 50  0  0  0  0            999 V2000
   -0.3381    2.8314    1.8371 C   0  0
   -0.9829    3.2520    2.9837 C   0  0
   -2.0194    2.4939    3.5135 C   0  0
   -2.4075    1.3178    2.8844 C   0  0
   -1.7621    0.9059    1.7350 C   0  0
   -0.7307    1.6629    1.2103 C   0  0
   -0.0288    1.2104   -0.0441 C   0  0
   -0.7286    1.7876   -1.2475 C   0  0
   -1.6979    2.4940   -1.1015 O   0  0
   -0.2752    1.5169   -2.4815 O   0  0
   -0.9986    2.1068   -3.5937 C   0  0
   -0.3396    1.6890   -4.9098 C   0  0
   -0.4736    0.2407   -5.0848 N   0  0
    0.4268   -0.6613   -4.6468 C   0  0
    1.4612   -0.4360   -4.0560 O   0  0
   -0.1238   -2.0164   -5.0448 C   0  0
   -1.3853   -1.6894   -5.7315 N   0  0
   -1.5022   -0.3495   -5.7043 C   0  0
   -2.4376    0.2571   -6.1882 O   0  0
   -2.6697    2.9132    4.6764 N   0  0
   -1.7865    3.4300    5.9784 S   0  0
   -0.8935    4.4239    5.4947 O   0  0
   -2.7149    3.6838    7.0239 O   0  0
   -0.7929    2.0737    6.5054 C   0  0
   -1.3150    1.1300    7.3703 C   0  0
   -0.5381    0.0632    7.7805 C   0  0
    0.7670   -0.0545    7.3333 C   0  0
    1.2905    0.8941    6.4712 C   0  0
    0.5100    1.9572    6.0582 C   0  0
    1.5288   -1.0945    7.7374 F   0  0
    0.4887    3.4265    1.4220 H   0  0
   -0.6761    4.1862    3.4768 H   0  0
   -3.2280    0.7152    3.3012 H   0  0
   -2.0688   -0.0254    1.2364 H   0  0
   -0.0489    0.1121   -0.1010 H   0  0
    1.0148    1.5575   -0.0260 H   0  0
   -0.9778    3.2031   -3.5059 H   0  0
   -2.0416    1.7575   -3.5795 H   0  0
    0.7268    1.9579   -4.8888 H   0  0
   -0.8317    2.2060   -5.7468 H   0  0
    0.5676   -2.5182   -5.7378 H   0  0
   -0.3244   -2.6233   -4.1496 H   0  0
   -2.0486   -2.3566   -6.1508 H   0  0
   -3.6985    2.9010    4.7241 H   0  0
   -2.3491    1.2283    7.7321 H   0  0
   -0.9564   -0.6921    8.4620 H   0  0
    2.3272    0.8016    6.1152 H   0  0
    0.9257    2.7110    5.3733 H   0  0
  1  6  2  0
  1  2  1  0
  2  3  2  0
  3  4  1  0
  3 20  1  0
  4  5  2  0
  5  6  1  0
  6  7  1  0
  7  8  1  0
  8  9  2  0
  8 10  1  0
 10 11  1  0
 11 12  1  0
 12 13  1  0
 13 18  1  0
 13 14  1  0
 14 15  2  0
 14 16  1  0
 16 17  1  0
 17 18  1  0
 18 19  2  0
 20 21  1  0
 21 22  2  0
 21 23  2  0
 21 24  1  0
 24 29  2  0
 24 25  1  0
 25 26  2  0
 26 27  1  0
 27 28  2  0
 27 30  1  0
 28 29  1  0
  1 31  1  0
  2 32  1  0
  4 33  1  0
  5 34  1  0
  7 35  1  0
  7 36  1  0
 11 37  1  0
 11 38  1  0
 12 39  1  0
 12 40  1  0
 16 41  1  0
 16 42  1  0
 17 43  1  0
 20 44  1  0
 25 45  1  0
 26 46  1  0
 28 47  1  0
 29 48  1  0
M  END
> <Name>
ZINC30778556

> <reference>
BDB50021148

> <quality>
0.692

> <status>
decoy

$$$$
ZINC26392323
  SciTegic06061311253D

 53 54  0  0  0  0            999 V2000
  -12.7204   -8.0625    0.1865 C   0  0
  -12.1704   -7.5817   -1.1578 C   0  0  1  0  0  0
  -13.1917   -6.6592   -1.8262 C   0  0
  -10.8843   -6.8287   -0.9341 C   0  0
   -9.7133   -7.2772   -1.5210 C   0  0
   -8.5325   -6.5948   -1.3217 C   0  0
   -8.5196   -5.4444   -0.5227 C   0  0
   -9.7080   -5.0009    0.0715 C   0  0
  -10.8808   -5.6924   -0.1432 C   0  0
   -7.2674   -4.7116   -0.3045 C   0  0
   -7.2858   -3.3520   -0.1717 C   0  0
   -8.4988   -2.6265   -0.4015 C   0  0
   -9.4611   -2.0510   -0.5838 N   0  0
   -6.0586   -2.6329    0.2075 C   0  0
   -5.0283   -3.2491    0.4027 O   0  0
   -6.0768   -1.2916    0.3385 N   0  0
   -4.8940   -0.6004    0.5930 C   0  0
   -3.7077   -1.0092   -0.0087 C   0  0
   -2.5377   -0.3280    0.2400 C   0  0
   -2.5420    0.7751    1.0981 C   0  0
   -3.7340    1.1796    1.7053 C   0  0
   -4.9017    0.4975    1.4480 C   0  0
   -1.2893    1.5075    1.3674 C   0  0
   -0.2520    1.1514    0.8423 O   0  0
   -1.2951    2.5710    2.1952 N   0  0
   -0.0505    3.2944    2.4671 C   0  0
   -0.3264    4.4279    3.4211 C   0  0
   -1.4477    4.6126    3.8317 O   0  0
    0.6734    5.2323    3.8147 O   0  0
    0.3345    6.3034    4.7346 C   0  0
  -13.6591   -8.6125    0.0242 H   0  0
  -12.9115   -7.1961    0.8367 H   0  0
  -11.9866   -8.7258    0.6676 H   0  0
  -11.9794   -8.4489   -1.8070 H   0  0
  -13.3832   -5.7915   -1.1778 H   0  0
  -14.1308   -7.2079   -1.9902 H   0  0
  -12.7969   -6.3131   -2.7928 H   0  0
   -9.7254   -8.1808   -2.1482 H   0  0
   -7.6030   -6.9525   -1.7887 H   0  0
   -9.7053   -4.1034    0.7076 H   0  0
  -11.8167   -5.3404    0.3152 H   0  0
   -6.3138   -5.2569   -0.2478 H   0  0
   -6.9650   -0.7775    0.2505 H   0  0
   -3.7049   -1.8777   -0.6838 H   0  0
   -1.6004   -0.6515   -0.2361 H   0  0
   -3.7391    2.0421    2.3881 H   0  0
   -5.8419    0.8207    1.9188 H   0  0
   -2.1746    2.8752    2.6367 H   0  0
    0.3535    3.6977    1.5268 H   0  0
    0.6822    2.6078    2.9164 H   0  0
   -0.1174    5.8241    5.6155 H   0  0
   -0.4435    6.9029    4.2393 H   0  0
    1.2051    6.9171    5.0093 H   0  0
  1  2  1  0
  2  3  1  0
  2  4  1  0
  4  9  2  0
  4  5  1  0
  5  6  2  0
  6  7  1  0
  7  8  2  0
  7 10  1  0
  8  9  1  0
 10 11  2  0
 11 12  1  0
 11 14  1  0
 12 13  3  0
 14 15  2  0
 14 16  1  0
 16 17  1  0
 17 22  2  0
 17 18  1  0
 18 19  2  0
 19 20  1  0
 20 21  2  0
 20 23  1  0
 21 22  1  0
 23 24  2  0
 23 25  1  0
 25 26  1  0
 26 27  1  0
 27 28  2  0
 27 29  1  0
 29 30  1  0
  1 31  1  0
  1 32  1  0
  1 33  1  0
  2 34  1  0
  3 35  1  0
  3 36  1  0
  3 37  1  0
  5 38  1  0
  6 39  1  0
  8 40  1  0
  9 41  1  0
 10 42  1  0
 16 43  1  0
 18 44  1  0
 19 45  1  0
 21 46  1  0
 22 47  1  0
 25 48  1  0
 26 49  1  0
 26 50  1  0
 30 51  1  0
 30 52  1  0
 30 53  1  0
M  END
> <Name>
ZINC26392323

> <reference>
BDB50048505

> <quality>
0.814

> <status>
decoy

$$$$
ZINC21099698
  SciTegic06061311253D

 42 43  0  0  0  0            999 V2000
    8.0696   -1.2319  -11.9248 C   0  0
    7.3551   -2.5195  -11.5096 C   0  0
    6.8977   -2.3981  -10.1368 O   0  0
    6.2437   -3.4546   -9.6139 C   0  0
    6.0607   -4.4501  -10.2872 O   0  0
    5.7519   -3.4028   -8.2298 C   0  0
    5.8455   -2.2261   -7.4764 C   0  0
    5.3879   -2.2189   -6.2387 N   0  0
    4.8532   -3.3082   -5.6979 C   0  0
    4.7422   -4.4453   -6.3699 N   0  0
    5.1720   -4.5389   -7.6224 C   0  0
    5.0551   -5.7235   -8.3177 N   0  0
    4.2668   -3.2371   -4.0378 S   0  0
    4.6613   -1.5163   -3.6386 C   0  0
    4.2361   -1.2187   -2.2238 C   0  0
    3.7173   -2.0847   -1.5516 O   0  0
    4.4322    0.0099   -1.7054 N   0  0
    5.0588    1.0560   -2.5174 C   0  0
    4.0188    0.2992   -0.3301 C   0  0
    2.5976    0.8006   -0.3276 C   0  0
    1.4447    0.0963   -0.2231 C   0  0
    0.2400    0.7746   -0.2452 C   0  0
    0.2487    2.1253   -0.3708 C   0  0
    1.9967    2.4762   -0.4627 S   0  0
   -1.0921    3.2262   -0.4336 Cl  0  0
    8.9331   -1.0614  -11.2651 H   0  0
    7.3744   -0.3833  -11.8444 H   0  0
    8.4164   -1.3232  -12.9647 H   0  0
    6.4916   -2.6890  -12.1696 H   0  0
    8.0503   -3.3682  -11.5900 H   0  0
    6.2942   -1.3204   -7.9103 H   0  0
    5.3943   -5.7784   -9.2887 H   0  0
    4.6316   -6.5490   -7.8705 H   0  0
    4.1279   -0.8469   -4.3295 H   0  0
    5.7452   -1.3563   -3.7365 H   0  0
    4.4301    1.1361   -3.4165 H   0  0
    6.0252    0.6348   -2.8316 H   0  0
    5.1700    2.0182   -1.9960 H   0  0
    4.0844   -0.6182    0.2733 H   0  0
    4.6788    1.0679    0.0983 H   0  0
    1.4669   -0.9988   -0.1222 H   0  0
   -0.7107    0.2275   -0.1622 H   0  0
  1  2  1  0
  2  3  1  0
  3  4  1  0
  4  5  2  0
  4  6  1  0
  6 11  2  0
  6  7  1  0
  7  8  2  0
  8  9  1  0
  9 10  2  0
  9 13  1  0
 10 11  1  0
 11 12  1  0
 13 14  1  0
 14 15  1  0
 15 16  2  0
 15 17  1  0
 17 18  1  0
 17 19  1  0
 19 20  1  0
 20 24  1  0
 20 21  2  0
 21 22  1  0
 22 23  2  0
 23 24  1  0
 23 25  1  0
  1 26  1  0
  1 27  1  0
  1 28  1  0
  2 29  1  0
  2 30  1  0
  7 31  1  0
 12 32  1  0
 12 33  1  0
 14 34  1  0
 14 35  1  0
 18 36  1  0
 18 37  1  0
 18 38  1  0
 19 39  1  0
 19 40  1  0
 21 41  1  0
 22 42  1  0
M  END
> <Name>
ZINC21099698

> <reference>
BDB50048505

> <quality>
0.792

> <status>
decoy

$$$$
ZINC22214837
  SciTegic06061311253D

 58 60  0  0  1  0            999 V2000
    1.7238    3.2580    0.0027 C   0  0
    1.2726    1.8201   -0.0003 C   0  0
    2.1046    0.6781   -0.0144 C   0  0
    1.2750   -0.4287   -0.0124 C   0  0
    0.0021   -0.0041    0.0020 N   0  0
   -0.0166    1.3742    0.0096 C   0  0
   -1.2167    2.2168    0.0201 C   0  0
   -1.1092    3.4280    0.0257 O   0  0
   -2.4398    1.6483    0.0236 O   0  0
   -3.5828    2.5437    0.0341 C   0  0
   -4.8544    1.7349    0.0366 C   0  0
   -4.8025    0.5230    0.0302 O   0  0
   -6.0494    2.3581    0.0460 N   0  0
   -7.2316    1.6062    0.0483 N   0  0
   -8.3666    2.1982    0.0572 C   0  0
   -8.6252    3.6977    0.0729 C   0  0
  -10.1787    3.8360    0.0516 C   0  0  1  0  0  0
  -10.6140    3.3527   -1.3661 C   0  0
  -10.3280    1.8333   -1.3608 C   0  0
   -9.7565    1.5463    0.0612 C   0  0  2  0  0  0
  -10.5615    2.5728    0.9334 C   0  0  2  0  0  0
  -12.0660    2.2955    0.9063 C   0  0
  -10.0249    2.6579    2.3637 C   0  0
   -9.8074    0.0871    0.5186 C   0  0
    1.7243   -1.8672   -0.0244 C   0  0
    3.5771    0.6681   -0.0278 C   0  0
    4.1752    0.6697   -1.0857 O   0  0
    4.2614    0.6572    1.1331 O   0  0
    5.7106    0.6478    1.0440 C   0  0
    1.2104    3.6643    0.8866 H   0  0
    1.1939    3.6732   -0.8672 H   0  0
    2.8097    3.4332   -0.0066 H   0  0
   -0.8294   -0.6119    0.0066 H   0  0
   -3.5575    3.1829   -0.8607 H   0  0
   -3.5475    3.1731    0.9355 H   0  0
   -6.0935    3.3871    0.0515 H   0  0
   -8.1939    4.1659   -0.8242 H   0  0
   -8.2208    4.1412    0.9947 H   0  0
  -10.5723    4.8240    0.3327 H   0  0
  -10.0070    3.8482   -2.1381 H   0  0
  -11.6889    3.5340   -1.5135 H   0  0
  -11.2621    1.2724   -1.5118 H   0  0
   -9.5768    1.5864   -2.1255 H   0  0
  -12.3695    2.1230   -0.1368 H   0  0
  -12.5908    3.1841    1.2871 H   0  0
  -12.3088    1.4175    1.5228 H   0  0
  -10.4338    3.5691    2.8247 H   0  0
   -8.9304    2.7537    2.3093 H   0  0
  -10.3070    1.7690    2.9470 H   0  0
   -9.3811    0.0596    1.5323 H   0  0
   -9.1351   -0.4751   -0.1462 H   0  0
  -10.8280   -0.3227    0.4996 H   0  0
    2.3945   -1.9165    0.8465 H   0  0
    2.3777   -1.9071   -0.9084 H   0  0
    0.9296   -2.6277   -0.0209 H   0  0
    5.9911    1.5384    0.4624 H   0  0
    5.9789   -0.2402    0.4529 H   0  0
    6.1958    0.6392    2.0312 H   0  0
  1  2  1  0
  2  6  2  0
  2  3  1  0
  3  4  2  0
  3 26  1  0
  4  5  1  0
  4 25  1  0
  5  6  1  0
  6  7  1  0
  7  8  2  0
  7  9  1  0
  9 10  1  0
 10 11  1  0
 11 12  2  0
 11 13  1  0
 13 14  1  0
 14 15  2  0
 15 20  1  0
 15 16  1  0
 16 17  1  0
 17 21  1  0
 17 18  1  0
 18 19  1  0
 19 20  1  0
 20 21  1  0
 20 24  1  0
 21 22  1  0
 21 23  1  0
 26 27  2  0
 26 28  1  0
 28 29  1  0
  1 30  1  0
  1 31  1  0
  1 32  1  0
  5 33  1  0
 10 34  1  0
 10 35  1  0
 13 36  1  0
 16 37  1  0
 16 38  1  0
 17 39  1  0
 18 40  1  0
 18 41  1  0
 19 42  1  0
 19 43  1  0
 22 44  1  0
 22 45  1  0
 22 46  1  0
 23 47  1  0
 23 48  1  0
 23 49  1  0
 24 50  1  0
 24 51  1  0
 24 52  1  0
 25 53  1  0
 25 54  1  0
 25 55  1  0
 29 56  1  0
 29 57  1  0
 29 58  1  0
M  END
> <Name>
ZINC22214837

> <reference>
BDB50048505

> <quality>
0.791

> <status>
decoy

$$$$
ZINC14487258
  SciTegic06061311253D

 49 51  0  0  0  0            999 V2000
    0.1256   -0.1398   -3.6369 C   0  0
    0.5158   -0.3562   -2.2794 O   0  0
   -0.1735    0.4687   -1.3379 C   0  0
    0.3215    0.1533    0.0750 C   0  0
   -0.4166    1.0365    1.0830 C   0  0
    0.0574    0.7344    2.4359 N   0  0
    0.6109    1.6738    3.1605 C   0  0
    1.1135    1.6032    4.4452 N   0  0
    1.6534    2.7341    4.9976 C   0  0
    1.6732    3.8802    4.2877 C   0  0
    0.9083    3.3866    2.7519 S   0  0
    2.2067    2.6999    6.3688 C   0  0
    2.8564    1.5561    6.8330 C   0  0
    3.3758    1.5294    8.1104 C   0  0
    3.2440    2.6345    8.9411 C   0  0
    2.5948    3.7742    8.4894 C   0  0
    2.0751    3.8133    7.2073 C   0  0
    1.4394    4.9291    6.7635 O   0  0
    3.7533    2.5994   10.2007 O   0  0
    1.0755    0.4018    5.1648 N   0  0
    0.1637   -0.4840    4.9015 C   0  0
    0.2028   -1.8015    5.5628 C   0  0
    1.2244   -2.1006    6.4694 C   0  0
    1.2589   -3.3313    7.0935 C   0  0
    0.2930   -4.2794    6.8192 C   0  0
   -0.7306   -3.9967    5.9112 C   0  0
   -0.7756   -2.7542    5.2813 C   0  0
   -1.7308   -4.9815    5.6279 C   0  0
   -2.5244   -5.7628    5.4032 N   0  0
    0.3102    0.9192   -3.8702 H   0  0
   -0.9561   -0.3276   -3.7049 H   0  0
    0.6798   -0.7940   -4.3260 H   0  0
    0.0208    1.5271   -1.5662 H   0  0
   -1.2542    0.2728   -1.3992 H   0  0
    0.1271   -0.9049    0.3041 H   0  0
    1.4019    0.3498    0.1386 H   0  0
   -1.4973    0.8406    1.0216 H   0  0
   -0.2222    2.0949    0.8547 H   0  0
    2.0614    4.8670    4.5800 H   0  0
    2.9544    0.6759    6.1806 H   0  0
    3.8959    0.6302    8.4723 H   0  0
    2.4930    4.6474    9.1506 H   0  0
    0.5429    4.6160    6.4835 H   0  0
    4.7127    2.3853   10.0828 H   0  0
   -0.6381   -0.2518    4.1851 H   0  0
    2.0023   -1.3535    6.6857 H   0  0
    2.0596   -3.5580    7.8128 H   0  0
    0.3296   -5.2597    7.3169 H   0  0
   -1.5791   -2.5263    4.5655 H   0  0
  1  2  1  0
  2  3  1  0
  3  4  1  0
  4  5  1  0
  5  6  1  0
  6  7  2  0
  7 11  1  0
  7  8  1  0
  8  9  1  0
  8 20  1  0
  9 10  2  0
  9 12  1  0
 10 11  1  0
 12 17  2  0
 12 13  1  0
 13 14  2  0
 14 15  1  0
 15 16  2  0
 15 19  1  0
 16 17  1  0
 17 18  1  0
 20 21  2  0
 21 22  1  0
 22 27  2  0
 22 23  1  0
 23 24  2  0
 24 25  1  0
 25 26  2  0
 26 27  1  0
 26 28  1  0
 28 29  3  0
  1 30  1  0
  1 31  1  0
  1 32  1  0
  3 33  1  0
  3 34  1  0
  4 35  1  0
  4 36  1  0
  5 37  1  0
  5 38  1  0
 10 39  1  0
 13 40  1  0
 14 41  1  0
 16 42  1  0
 18 43  1  0
 19 44  1  0
 21 45  1  0
 23 46  1  0
 24 47  1  0
 25 48  1  0
 27 49  1  0
M  END
> <Name>
ZINC14487258

> <reference>
BDB50048505

> <quality>
0.766

> <status>
decoy

$$$$
ZINC01202159
  SciTegic06061311253D

 55 57  0  0  1  0            999 V2000
    2.5669    0.0347    1.2271 C   0  0
    2.4620    0.9199   -0.0165 C   0  0  1  0  0  0
    1.1468    1.6555    0.0000 C   0  0
    1.1304    2.8685    0.0067 O   0  0
   -0.0111    0.9658    0.0074 N   0  0
   -1.2338    1.6498    0.0169 N   0  0
   -2.3488    0.9856    0.0185 C   0  0
   -3.6354    1.7053    0.0286 C   0  0
   -3.6560    3.1022    0.0421 C   0  0
   -4.8648    3.7746    0.0471 C   0  0
   -6.0594    3.0612    0.0489 C   0  0
   -6.0422    1.6699    0.0403 C   0  0
   -4.8366    0.9918    0.0304 C   0  0
   -7.2118    0.9760    0.0420 O   0  0
   -7.1202   -0.4500    0.0333 C   0  0
   -7.2465    3.7253    0.0595 O   0  0
   -7.8057    4.0342    1.3377 C   0  0
   -4.8856    5.1344    0.0559 O   0  0
   -3.6225    5.8026    0.0535 C   0  0
    3.5624    1.8869   -0.0218 N   0  0
    4.8025    1.5281   -0.5455 C   0  0
    5.0027    0.2627   -1.0552 C   0  0
    6.2364   -0.1043   -1.5839 C   0  0
    7.2804    0.7698   -1.6051 C   0  0
    7.1196    2.0677   -1.0911 C   0  0
    5.8672    2.4547   -0.5539 C   0  0
    5.7084    3.7511   -0.0399 C   0  0
    6.7575    4.6188   -0.0638 C   0  0
    7.9898    4.2393   -0.5921 C   0  0
    8.1799    2.9906   -1.0991 C   0  0
    1.7412   -0.6920    1.2319 H   0  0
    2.5089    0.6605    2.1299 H   0  0
    3.5267   -0.5025    1.2157 H   0  0
    2.5203    0.2932   -0.9187 H   0  0
    0.0029   -0.0641    0.0061 H   0  0
   -2.3338   -0.1143    0.0123 H   0  0
   -2.7119    3.6667    0.0487 H   0  0
   -4.8236   -0.1081    0.0240 H   0  0
   -6.5281   -0.7272    0.9180 H   0  0
   -6.5368   -0.7169   -0.8602 H   0  0
   -8.1052   -0.9397    0.0353 H   0  0
   -7.0487    4.6279    1.8711 H   0  0
   -7.9169    3.0760    1.8663 H   0  0
   -8.7635    4.5703    1.2649 H   0  0
   -3.0878    5.4499   -0.8407 H   0  0
   -3.0784    5.4385    0.9375 H   0  0
   -3.7207    6.8982    0.0610 H   0  0
    3.4193    2.8321    0.3617 H   0  0
    4.1778   -0.4649   -1.0438 H   0  0
    6.3706   -1.1172   -1.9914 H   0  0
    8.2490    0.4600   -2.0244 H   0  0
    4.7413    4.0646    0.3801 H   0  0
    6.6304    5.6341    0.3398 H   0  0
    8.8212    4.9595   -0.5995 H   0  0
    9.1582    2.7050   -1.5130 H   0  0
  1  2  1  0
  2  3  1  0
  2 20  1  0
  3  4  2  0
  3  5  1  0
  5  6  1  0
  6  7  2  0
  7  8  1  0
  8 13  2  0
  8  9  1  0
  9 10  2  0
 10 11  1  0
 10 18  1  0
 11 12  2  0
 11 16  1  0
 12 13  1  0
 12 14  1  0
 14 15  1  0
 16 17  1  0
 18 19  1  0
 20 21  1  0
 21 26  2  0
 21 22  1  0
 22 23  2  0
 23 24  1  0
 24 25  2  0
 25 30  1  0
 25 26  1  0
 26 27  1  0
 27 28  2  0
 28 29  1  0
 29 30  2  0
  1 31  1  0
  1 32  1  0
  1 33  1  0
  2 34  1  0
  5 35  1  0
  7 36  1  0
  9 37  1  0
 13 38  1  0
 15 39  1  0
 15 40  1  0
 15 41  1  0
 17 42  1  0
 17 43  1  0
 17 44  1  0
 19 45  1  0
 19 46  1  0
 19 47  1  0
 20 48  1  0
 22 49  1  0
 23 50  1  0
 24 51  1  0
 27 52  1  0
 28 53  1  0
 29 54  1  0
 30 55  1  0
M  END
> <Name>
ZINC01202159

> <reference>
BDB50048505

> <quality>
0.756

> <status>
decoy

$$$$
ZINC05791495
  SciTegic06061311253D

 47 48  0  0  1  0            999 V2000
   -4.1982    0.4082    2.3065 C   0  0
   -3.2851    0.2482    1.1183 C   0  0
   -2.1054   -0.3583    1.2845 C   0  0
   -1.1551   -0.5440    0.1336 C   0  0  1  0  0  0
   -1.8793   -0.3372   -1.1690 C   0  0
   -3.0906    0.2779   -1.2004 C   0  0
   -3.6814    0.7200   -0.0765 O   0  0
   -3.7230    0.4511   -2.4024 N   0  0
   -1.2971   -0.7840   -2.3648 C   0  0
   -1.8207   -0.5209   -3.4327 O   0  0
   -0.1561   -1.5060   -2.3318 O   0  0
    0.3811   -1.9281   -3.5870 C   0  0
    1.6642   -2.7270   -3.3498 C   0  0
    1.3472   -3.9513   -2.6365 O   0  0
    2.3747   -4.7745   -2.3470 C   0  0
    3.5045   -4.4770   -2.6817 O   0  0
    2.1286   -6.0315   -1.6267 C   0  0
    3.1430   -6.8442   -1.3409 C   0  0
    0.7276   -6.4003   -1.2117 C   0  0
   -0.0322    0.4548    0.2459 C   0  0
   -0.3083    1.8092    0.2373 C   0  0
    0.7215    2.7254    0.3398 C   0  0
    2.0284    2.2878    0.4509 C   0  0
    2.3056    0.9340    0.4596 C   0  0
    1.2751    0.0163    0.3570 C   0  0
    1.6225   -1.6845    0.3685 Cl  0  0
   -1.7399   -0.8406    2.5824 C   0  0
   -1.4499   -1.2231    3.6120 N   0  0
   -5.1434   -0.0758    2.0196 H   0  0
   -4.3906    1.4882    2.3875 H   0  0
   -3.7822   -0.0104    3.2348 H   0  0
   -0.7481   -1.5655    0.1623 H   0  0
   -3.2876    0.1197   -3.2750 H   0  0
   -4.6413    0.9166   -2.4326 H   0  0
    0.6077   -1.0469   -4.2051 H   0  0
   -0.3536   -2.5611   -4.1062 H   0  0
    2.1255   -2.9757   -4.3169 H   0  0
    2.3661   -2.1267   -2.7523 H   0  0
    4.1656   -6.5750   -1.6438 H   0  0
    2.9588   -7.7851   -0.8017 H   0  0
    0.1444   -6.3876   -2.1443 H   0  0
    0.3804   -5.5514   -0.6044 H   0  0
    0.6531   -7.3599   -0.6792 H   0  0
   -1.3478    2.1579    0.1489 H   0  0
    0.5013    3.8031    0.3330 H   0  0
    2.8476    3.0174    0.5324 H   0  0
    3.3453    0.5860    0.5481 H   0  0
  1  2  1  0
  2  7  1  0
  2  3  2  0
  3  4  1  0
  3 27  1  0
  4  5  1  0
  4 20  1  0
  5  6  2  0
  5  9  1  0
  6  7  1  0
  6  8  1  0
  9 10  2  0
  9 11  1  0
 11 12  1  0
 12 13  1  0
 13 14  1  0
 14 15  1  0
 15 16  2  0
 15 17  1  0
 17 18  2  0
 17 19  1  0
 20 25  2  0
 20 21  1  0
 21 22  2  0
 22 23  1  0
 23 24  2  0
 24 25  1  0
 25 26  1  0
 27 28  3  0
  1 29  1  0
  1 30  1  0
  1 31  1  0
  4 32  1  0
  8 33  1  0
  8 34  1  0
 12 35  1  0
 12 36  1  0
 13 37  1  0
 13 38  1  0
 18 39  1  0
 18 40  1  0
 19 41  1  0
 19 42  1  0
 19 43  1  0
 21 44  1  0
 22 45  1  0
 23 46  1  0
 24 47  1  0
M  END
> <Name>
ZINC05791495

> <reference>
BDB50048505

> <quality>
0.751

> <status>
decoy

$$$$
ZINC11082909
  SciTegic06061311253D

 50 51  0  0  0  0            999 V2000
   11.2487    6.7509    0.0850 C   0  0
   11.6513    5.3029    0.1960 C   0  0
   12.9896    4.9620    0.2729 C   0  0
   13.3637    3.6346    0.3743 C   0  0
   12.4012    2.6447    0.4059 C   0  0
   11.0560    2.9831    0.3236 C   0  0
   10.6838    4.3183    0.2212 C   0  0
    9.8248    1.7230    0.3561 S   0  0
    8.2611    2.6342    0.2332 C   0  0
    7.1102    1.6614    0.2502 C   0  0
    7.3231    0.4752    0.3364 O   0  0
    5.8487    2.1128    0.1696 O   0  0
    4.7903    1.1189    0.1917 C   0  0
    3.4531    1.8068    0.0926 C   0  0
    3.3976    3.0152    0.0114 O   0  0
    2.3190    1.0787    0.0943 N   0  0
    1.1231    1.6939    0.0057 C   0  0
    1.0674    2.9054   -0.0758 O   0  0
   -0.0111    0.9658    0.0074 N   0  0
   -1.2563    1.6086    0.0071 C   0  0
   -2.3258    1.0509    0.6948 C   0  0
   -3.5511    1.6878    0.6990 C   0  0
   -3.7166    2.8785    0.0068 C   0  0
   -2.6500    3.4332   -0.6852 C   0  0
   -1.4226    2.8003   -0.6854 C   0  0
   -4.9248    3.5024    0.0070 O   0  0
   -5.9788    2.8752    0.7403 C   0  0
   12.8096    1.1988    0.5233 C   0  0
   10.5717    6.9256    0.9342 H   0  0
   10.6432    6.8102   -0.8314 H   0  0
   12.0986    7.4492    0.0738 H   0  0
   13.7582    5.7487    0.2533 H   0  0
   14.4292    3.3668    0.4299 H   0  0
    9.6197    4.5902    0.1603 H   0  0
    8.2422    3.2071   -0.7056 H   0  0
    8.1704    3.3237    1.0855 H   0  0
    4.8401    0.5494    1.1315 H   0  0
    4.9132    0.4331   -0.6595 H   0  0
    2.3662    0.0521    0.1633 H   0  0
    0.0374   -0.0631    0.0089 H   0  0
   -2.1971    0.1020    1.2361 H   0  0
   -4.3961    1.2508    1.2514 H   0  0
   -2.7819    4.3774   -1.2339 H   0  0
   -0.5769    3.2403   -1.2341 H   0  0
   -5.6182    2.7740    1.7746 H   0  0
   -6.0883    1.8642    0.3208 H   0  0
   -6.9230    3.4377    0.6936 H   0  0
   13.4170    1.1471    1.4389 H   0  0
   13.4863    1.0234   -0.3260 H   0  0
   11.9629    0.4968    0.5393 H   0  0
  1  2  1  0
  2  7  2  0
  2  3  1  0
  3  4  2  0
  4  5  1  0
  5  6  2  0
  5 28  1  0
  6  7  1  0
  6  8  1  0
  8  9  1  0
  9 10  1  0
 10 11  2  0
 10 12  1  0
 12 13  1  0
 13 14  1  0
 14 15  2  0
 14 16  1  0
 16 17  1  0
 17 18  2  0
 17 19  1  0
 19 20  1  0
 20 25  2  0
 20 21  1  0
 21 22  2  0
 22 23  1  0
 23 24  2  0
 23 26  1  0
 24 25  1  0
 26 27  1  0
  1 29  1  0
  1 30  1  0
  1 31  1  0
  3 32  1  0
  4 33  1  0
  7 34  1  0
  9 35  1  0
  9 36  1  0
 13 37  1  0
 13 38  1  0
 16 39  1  0
 19 40  1  0
 21 41  1  0
 22 42  1  0
 24 43  1  0
 25 44  1  0
 27 45  1  0
 27 46  1  0
 27 47  1  0
 28 48  1  0
 28 49  1  0
 28 50  1  0
M  END
> <Name>
ZINC11082909

> <reference>
BDB50048505

> <quality>
0.745

> <status>
decoy

$$$$
ZINC12910955
  SciTegic06061311253D

 51 53  0  0  0  0            999 V2000
    1.0136    5.0239   -0.2272 C   0  0
   -0.3886    4.6263    0.2385 C   0  0
   -0.3244    3.3413    0.9391 N   0  0
   -0.3744    2.0896    0.1796 C   0  0
   -1.8332    1.7085   -0.0801 C   0  0
   -0.1954    3.3038    2.5897 S   0  0
    0.3924    2.0536    2.9227 O   0  0
    0.3784    4.5436    2.9805 O   0  0
   -1.8329    3.2795    3.2398 C   0  0
   -2.4784    4.4681    3.5274 C   0  0
   -3.7650    4.4555    4.0331 C   0  0
   -4.4074    3.2497    4.2631 C   0  0
   -3.7558    2.0519    3.9786 C   0  0
   -2.4667    2.0726    3.4663 C   0  0
   -4.4007    0.8294    4.2087 N   0  0
   -4.0764   -0.2525    3.4734 C   0  0
   -3.1609   -0.1942    2.6798 O   0  0
   -4.8511   -1.5347    3.6371 C   0  0  2  0  0  0
   -5.3048   -2.2533    2.3648 C   0  0
   -6.3280   -1.5236    3.2375 C   0  0
   -4.4553   -2.3874    4.8149 C   0  0
   -5.3417   -2.5778    5.8586 C   0  0
   -4.9816   -3.3635    6.9370 C   0  0
   -3.7287   -3.9514    6.9768 C   0  0
   -2.8399   -3.7557    5.9334 C   0  0
   -3.2041   -2.9739    4.8535 C   0  0
   -3.3739   -4.7158    8.0327 F   0  0
   -5.6708    3.2356    4.7658 O   0  0
    1.4066    4.2549   -0.9085 H   0  0
    1.6784    5.1151    0.6444 H   0  0
    0.9661    5.9887   -0.7534 H   0  0
   -0.7807    5.3957    0.9199 H   0  0
   -1.0535    4.5351   -0.6330 H   0  0
    0.1459    2.2221   -0.7805 H   0  0
    0.1157    1.2904    0.7550 H   0  0
   -2.3246    2.5062   -0.6565 H   0  0
   -2.3549    1.5756    0.8792 H   0  0
   -1.8714    0.7687   -0.6504 H   0  0
   -1.9668    5.4262    3.3533 H   0  0
   -4.2788    5.4030    4.2529 H   0  0
   -1.9492    1.1286    3.2405 H   0  0
   -5.1226    0.7576    4.9398 H   0  0
   -5.3540   -3.3423    2.5120 H   0  0
   -5.0571   -1.6728    1.4639 H   0  0
   -6.6194   -0.5594    2.7954 H   0  0
   -6.9151   -2.2285    3.8445 H   0  0
   -6.3339   -2.1038    5.8307 H   0  0
   -5.6901   -3.5217    7.7634 H   0  0
   -1.8442   -4.2223    5.9639 H   0  0
   -2.4981   -2.8183    4.0244 H   0  0
   -6.2029    3.7793    4.1323 H   0  0
  1  2  1  0
  2  3  1  0
  3  4  1  0
  3  6  1  0
  4  5  1  0
  6  7  2  0
  6  8  2  0
  6  9  1  0
  9 14  2  0
  9 10  1  0
 10 11  2  0
 11 12  1  0
 12 13  2  0
 12 28  1  0
 13 14  1  0
 13 15  1  0
 15 16  1  0
 16 17  2  0
 16 18  1  0
 18 20  1  0
 18 19  1  0
 18 21  1  0
 19 20  1  0
 21 26  2  0
 21 22  1  0
 22 23  2  0
 23 24  1  0
 24 25  2  0
 24 27  1  0
 25 26  1  0
  1 29  1  0
  1 30  1  0
  1 31  1  0
  2 32  1  0
  2 33  1  0
  4 34  1  0
  4 35  1  0
  5 36  1  0
  5 37  1  0
  5 38  1  0
 10 39  1  0
 11 40  1  0
 14 41  1  0
 15 42  1  0
 19 43  1  0
 19 44  1  0
 20 45  1  0
 20 46  1  0
 22 47  1  0
 23 48  1  0
 25 49  1  0
 26 50  1  0
 28 51  1  0
M  END
> <Name>
ZINC12910955

> <reference>
BDB50048505

> <quality>
0.738

> <status>
decoy

$$$$
ZINC31713399
  SciTegic06061311253D

 55 57  0  0  1  0            999 V2000
   -1.8364    0.7953   -3.5685 C   0  0
   -0.4335    1.3604   -3.3370 C   0  0
   -0.3990    2.1092   -2.0032 C   0  0  2  0  0  0
    0.9294    2.8319   -1.9075 C   0  0
    1.7270    2.5445   -0.8564 C   0  0
    1.3482    1.6329    0.0873 N   0  0
    0.1875    0.9663    0.0520 C   0  0
   -0.0621    0.1731    0.9387 O   0  0
   -0.7130    1.1460   -0.9344 N   0  0
    3.0569    3.2406   -0.7228 C   0  0
    4.0687    2.5124   -1.4923 N   0  0
    4.3622    2.7269   -2.7287 N   0  0
    5.3139    1.8812   -3.0700 C   0  0
    5.5821    1.1454   -1.9821 N   0  0
    4.8081    1.5616   -1.0380 N   0  0
    5.9629    1.7664   -4.4003 C   0  0
    5.5719    2.6029   -5.4433 C   0  0
    6.1826    2.4958   -6.6765 C   0  0
    7.1731    1.5523   -6.8809 C   0  0
    7.5611    0.7153   -5.8503 C   0  0
    6.9609    0.8178   -4.6115 C   0  0
    7.8323    1.4361   -8.2311 C   0  0  1  0  0  0
    6.7768    1.1004   -9.2867 C   0  0
    8.5047    2.7637   -8.5863 C   0  0
    1.3205    3.7759   -2.8857 C   0  0
    2.4395    4.2529   -2.8578 O   0  0
    0.4525    4.1474   -3.8499 O   0  0
    0.9145    5.1048   -4.8049 C   0  0
   -0.1995    5.3998   -5.8112 C   0  0
   -2.5653    1.6188   -3.5922 H   0  0
   -2.0930    0.1027   -2.7533 H   0  0
   -1.8619    0.2568   -4.5273 H   0  0
   -0.1768    2.0529   -4.1522 H   0  0
    0.2946    0.5362   -3.3131 H   0  0
   -1.1584    2.8990   -1.9050 H   0  0
    1.9915    1.4478    0.8701 H   0  0
   -1.5998    0.6221   -0.9406 H   0  0
    2.9735    4.2678   -1.1074 H   0  0
    3.3527    3.2685    0.3363 H   0  0
    4.7779    3.3474   -5.2844 H   0  0
    5.8810    3.1620   -7.4982 H   0  0
    8.3494   -0.0333   -6.0182 H   0  0
    7.2701    0.1516   -3.7926 H   0  0
    8.5889    0.6381   -8.2024 H   0  0
    6.0198    1.8980   -9.3165 H   0  0
    6.2930    0.1458   -9.0323 H   0  0
    7.2573    1.0154  -10.2726 H   0  0
    9.2639    3.0058   -7.8280 H   0  0
    7.7489    3.5624   -8.6156 H   0  0
    8.9861    2.6796   -9.5718 H   0  0
    1.1953    6.0336   -4.2868 H   0  0
    1.7898    4.7020   -5.3356 H   0  0
   -1.0753    5.8038   -5.2822 H   0  0
   -0.4813    4.4718   -6.3302 H   0  0
    0.1555    6.1367   -6.5466 H   0  0
  1  2  1  0
  2  3  1  0
  3  9  1  0
  3  4  1  0
  4  5  2  0
  4 25  1  0
  5  6  1  0
  5 10  1  0
  6  7  1  0
  7  8  2  0
  7  9  1  0
 10 11  1  0
 11 15  1  0
 11 12  1  0
 12 13  2  0
 13 14  1  0
 13 16  1  0
 14 15  2  0
 16 21  2  0
 16 17  1  0
 17 18  2  0
 18 19  1  0
 19 20  2  0
 19 22  1  0
 20 21  1  0
 22 23  1  0
 22 24  1  0
 25 26  2  0
 25 27  1  0
 27 28  1  0
 28 29  1  0
  1 30  1  0
  1 31  1  0
  1 32  1  0
  2 33  1  0
  2 34  1  0
  3 35  1  0
  6 36  1  0
  9 37  1  0
 10 38  1  0
 10 39  1  0
 17 40  1  0
 18 41  1  0
 20 42  1  0
 21 43  1  0
 22 44  1  0
 23 45  1  0
 23 46  1  0
 23 47  1  0
 24 48  1  0
 24 49  1  0
 24 50  1  0
 28 51  1  0
 28 52  1  0
 29 53  1  0
 29 54  1  0
 29 55  1  0
M  END
> <Name>
ZINC31713399

> <reference>
BDB50048505

> <quality>
0.736

> <status>
decoy

$$$$
ZINC24168739
  SciTegic06061311253D

 49 50  0  0  1  0            999 V2000
    5.0191   -0.6502    1.4699 C   0  0
    4.9128    0.0255    0.1013 C   0  0  1  0  0  0
    3.7043    0.9256    0.0780 C   0  0
    3.8437    2.1252   -0.0343 O   0  0
    2.4687    0.3976    0.1821 N   0  0
    1.3435    1.2189    0.0505 C   0  0
    0.1869    0.9338    0.7656 C   0  0
   -0.9240    1.7447    0.6369 C   0  0
   -0.8891    2.8412   -0.2032 C   0  0
    0.2659    3.1347   -0.9168 C   0  0
    1.3818    2.3190   -0.7938 C   0  0
    0.3025    4.2486   -1.7629 N   0  0
   -0.3922    5.3591   -1.4454 C   0  0
   -0.9724    5.4282   -0.3825 O   0  0
   -0.4480    6.5148   -2.4109 C   0  0
    6.1077    0.8132   -0.1437 O   0  0
    7.1302    0.1951   -0.7554 C   0  0
    7.0301   -0.9657   -1.0756 O   0  0
    8.4031    0.9489   -1.0429 C   0  0  1  0  0  0
    9.0717    1.3424    0.2758 C   0  0
    9.2886    0.1183   -1.7966 O   0  0
   10.2479    0.7438   -2.5285 C   0  0
   11.1812   -0.0029   -3.2334 C   0  0
   12.1555    0.6345   -3.9767 C   0  0
   12.2015    2.0157   -4.0194 C   0  0
   11.2723    2.7630   -3.3176 C   0  0
   10.2920    2.1291   -2.5764 C   0  0
   11.3328    4.4970   -3.3732 Cl  0  0
    4.1144   -1.2474    1.6564 H   0  0
    5.1190    0.1169    2.2519 H   0  0
    5.9010   -1.3074    1.4876 H   0  0
    4.8132   -0.7424   -0.6800 H   0  0
    2.3526   -0.6105    0.3585 H   0  0
    0.1558    0.0614    1.4349 H   0  0
   -1.8384    1.5170    1.2044 H   0  0
   -1.7769    3.4823   -0.3070 H   0  0
    2.2948    2.5442   -1.3645 H   0  0
    0.8603    4.2199   -2.6283 H   0  0
   -0.8475    6.0906   -3.3439 H   0  0
    0.6021    6.7841   -2.5976 H   0  0
   -1.0422    7.3665   -2.0482 H   0  0
    8.1699    1.8555   -1.6206 H   0  0
    9.3056    0.4364    0.8542 H   0  0
    8.3909    1.9820    0.8567 H   0  0
   10.0009    1.8927    0.0667 H   0  0
   11.1452   -1.1018   -3.2003 H   0  0
   12.8956    0.0426   -4.5352 H   0  0
   12.9780    2.5212   -4.6122 H   0  0
    9.5479    2.7230   -2.0254 H   0  0
  1  2  1  0
  2  3  1  0
  2 16  1  0
  3  4  2  0
  3  5  1  0
  5  6  1  0
  6 11  2  0
  6  7  1  0
  7  8  2  0
  8  9  1  0
  9 10  2  0
 10 11  1  0
 10 12  1  0
 12 13  1  0
 13 14  2  0
 13 15  1  0
 16 17  1  0
 17 18  2  0
 17 19  1  0
 19 20  1  0
 19 21  1  0
 21 22  1  0
 22 27  2  0
 22 23  1  0
 23 24  2  0
 24 25  1  0
 25 26  2  0
 26 27  1  0
 26 28  1  0
  1 29  1  0
  1 30  1  0
  1 31  1  0
  2 32  1  0
  5 33  1  0
  7 34  1  0
  8 35  1  0
  9 36  1  0
 11 37  1  0
 12 38  1  0
 15 39  1  0
 15 40  1  0
 15 41  1  0
 19 42  1  0
 20 43  1  0
 20 44  1  0
 20 45  1  0
 23 46  1  0
 24 47  1  0
 25 48  1  0
 27 49  1  0
M  END
> <Name>
ZINC24168739

> <reference>
BDB50048505

> <quality>
0.733

> <status>
decoy

$$$$
ZINC08213120
  SciTegic06061311253D

 44 47  0  0  0  0            999 V2000
   12.8556   -7.6542   -6.6692 C   0  0
   12.7693   -6.3538   -6.0833 O   0  0
   11.5475   -5.9569   -5.6394 C   0  0
   11.3944   -4.7049   -5.0597 C   0  0
   10.1559   -4.2994   -4.6079 C   0  0
    9.0574   -5.1482   -4.7338 C   0  0
    9.2156   -6.4069   -5.3115 C   0  0
   10.4556   -6.8045   -5.7662 C   0  0
    7.7242   -4.7154   -4.2484 C   0  0
    6.6437   -5.5439   -4.3695 C   0  0
    5.3661   -4.5317   -3.6342 S   0  0
    6.3923   -3.1184   -3.2545 C   0  0
    7.5698   -3.5228   -3.6933 N   0  0
    6.0443   -1.9156   -2.6518 N   0  0
    4.7699   -1.6961   -2.2721 C   0  0
    3.9269   -2.5483   -2.4564 O   0  0
    4.3925   -0.3917   -1.6186 C   0  0
    2.6249   -0.4012   -1.2290 S   0  0
    2.4643    1.1934   -0.4970 C   0  0
    3.4265    2.0553   -0.3359 N   0  0
    2.8902    3.1943    0.2803 N   0  0
    1.5737    2.9687    0.4696 C   0  0
    0.7771    3.7386    0.9765 O   0  0
    1.3003    1.7356   -0.0010 N   0  0
   -0.0127    1.0858    0.0080 C   0  0  1  0  0  0
   -1.1356    1.7728    0.7878 C   0  0
   -1.1502    1.7810   -0.7428 C   0  0
   12.1406   -7.6649   -7.5051 H   0  0
   12.4948   -8.3611   -5.9076 H   0  0
   13.8735   -7.9035   -7.0036 H   0  0
   12.2616   -4.0355   -4.9606 H   0  0
   10.0352   -3.3072   -4.1487 H   0  0
    8.3524   -7.0824   -5.4047 H   0  0
   10.5794   -7.7943   -6.2298 H   0  0
    6.5782   -6.5540   -4.8002 H   0  0
    6.7603   -1.1919   -2.4953 H   0  0
    4.9710   -0.2649   -0.6916 H   0  0
    4.6115    0.4401   -2.3042 H   0  0
    3.4063    4.0468    0.5407 H   0  0
    0.4231    0.0758   -0.0016 H   0  0
   -0.8113    2.7430    1.1923 H   0  0
   -1.8506    1.0417    1.1932 H   0  0
   -1.8735    1.0548   -1.1422 H   0  0
   -0.8328    2.7552   -1.1431 H   0  0
  1  2  1  0
  2  3  1  0
  3  8  2  0
  3  4  1  0
  4  5  2  0
  5  6  1  0
  6  7  2  0
  6  9  1  0
  7  8  1  0
  9 13  1  0
  9 10  2  0
 10 11  1  0
 11 12  1  0
 12 13  2  0
 12 14  1  0
 14 15  1  0
 15 16  2  0
 15 17  1  0
 17 18  1  0
 18 19  1  0
 19 24  1  0
 19 20  2  0
 20 21  1  0
 21 22  1  0
 22 23  2  0
 22 24  1  0
 24 25  1  0
 25 27  1  0
 25 26  1  0
 26 27  1  0
  1 28  1  0
  1 29  1  0
  1 30  1  0
  4 31  1  0
  5 32  1  0
  7 33  1  0
  8 34  1  0
 10 35  1  0
 14 36  1  0
 17 37  1  0
 17 38  1  0
 21 39  1  0
 25 40  1  0
 26 41  1  0
 26 42  1  0
 27 43  1  0
 27 44  1  0
M  END
> <Name>
ZINC08213120

> <reference>
BDB50048505

> <quality>
0.717

> <status>
decoy

$$$$
ZINC20834978
  SciTegic06061311253D

 42 45  0  0  0  0            999 V2000
   -1.2109   -0.8984    0.0083 C   0  0
    0.0021   -0.0041    0.0020 C   0  0
    1.2844   -0.4201   -0.0125 C   0  0
    2.0933    0.7319   -0.0140 C   0  0
    1.2492    1.8042   -0.0002 C   0  0
   -0.0161    1.3393    0.0094 O   0  0
    1.6486    3.2148    0.0031 C   0  0
    0.7415    4.1479    0.0169 N   0  0
    1.1232    5.4959    0.0201 N   0  0
    0.1565    6.4903    0.0347 C   0  0
    0.3894    7.8377    0.0393 N   0  0
   -0.8188    8.4750    0.0545 C   0  0
   -1.7594    7.5607    0.0590 N   0  0
   -1.1413    6.3036    0.0408 N   0  0
   -1.0697   10.2190    0.0665 S   0  0
   -2.8743   10.4026    0.0849 C   0  0
   -3.2301   11.8670    0.0964 C   0  0
   -3.4224   12.6205   -0.9499 N   0  0
   -3.7105   13.8161   -0.5718 N   0  0
   -3.7118   13.8667    0.7397 C   0  0
   -3.4123   12.6310    1.1874 O   0  0
   -3.9937   15.0561    1.5710 C   0  0
   -3.9643   14.9604    2.9632 C   0  0
   -4.2228   16.0744    3.7340 C   0  0
   -4.5224   17.2846    3.1286 C   0  0
   -4.5582   17.3838    1.7467 C   0  0
   -4.2960   16.2774    0.9665 C   0  0
   -4.7801   18.3716    3.8884 F   0  0
   -1.7803   -0.5433   -0.8633 H   0  0
   -1.7642   -0.5528    0.8940 H   0  0
   -1.0140   -1.9806    0.0007 H   0  0
    1.6329   -1.4634   -0.0215 H   0  0
    3.1928    0.7620   -0.0243 H   0  0
    2.7150    3.4845   -0.0061 H   0  0
    2.1217    5.7484    0.0116 H   0  0
   -1.6220    5.3927    0.0335 H   0  0
   -3.3003    9.9293   -0.8121 H   0  0
   -3.2839    9.9194    0.9842 H   0  0
   -3.7354   13.9982    3.4447 H   0  0
   -4.1911   16.0023    4.8312 H   0  0
   -4.7962   18.3468    1.2714 H   0  0
   -4.3250   16.3571   -0.1302 H   0  0
  1  2  1  0
  2  6  1  0
  2  3  2  0
  3  4  1  0
  4  5  2  0
  5  6  1  0
  5  7  1  0
  7  8  2  0
  8  9  1  0
  9 10  1  0
 10 14  1  0
 10 11  2  0
 11 12  1  0
 12 13  2  0
 12 15  1  0
 13 14  1  0
 15 16  1  0
 16 17  1  0
 17 21  1  0
 17 18  2  0
 18 19  1  0
 19 20  2  0
 20 21  1  0
 20 22  1  0
 22 27  2  0
 22 23  1  0
 23 24  2  0
 24 25  1  0
 25 26  2  0
 25 28  1  0
 26 27  1  0
  1 29  1  0
  1 30  1  0
  1 31  1  0
  3 32  1  0
  4 33  1  0
  7 34  1  0
  9 35  1  0
 14 36  1  0
 16 37  1  0
 16 38  1  0
 23 39  1  0
 24 40  1  0
 26 41  1  0
 27 42  1  0
M  END
> <Name>
ZINC20834978

> <reference>
BDB50048505

> <quality>
0.710

> <status>
decoy

$$$$
ZINC16335688
  SciTegic06061311253D

 47 49  0  0  0  0            999 V2000
    0.0021   -0.0041    0.0020 C   0  0
   -0.0167    1.3778    0.0096 C   0  0
    1.1732    2.0858    0.0021 C   0  0
    2.3806    1.4083   -0.0131 C   0  0
    2.3969    0.0264   -0.0202 C   0  0
    1.2082   -0.6795   -0.0127 C   0  0
    1.2273   -2.1863   -0.0199 C   0  0
    1.2203   -2.6681   -1.4034 N   0  0
    1.2352   -4.0334   -1.6640 C   0  0
    1.2557   -5.0451   -0.8187 N   0  0
    1.2677   -6.3356   -1.2953 N   0  0
    1.2587   -6.5547   -2.5962 C   0  0
    1.2239   -4.8863   -3.2335 S   0  0
    1.2701   -8.0842   -3.4710 S   0  0
    1.2985   -9.3388   -2.1611 C   0  0
    1.3103  -10.7122   -2.7812 C   0  0
    1.3005  -10.8329   -3.9880 O   0  0
    1.3318  -11.8065   -1.9947 N   0  0
    1.3432  -13.1417   -2.5975 C   0  0  2  0  0  0
    0.0881  -13.3259   -3.4529 C   0  0
    0.1001  -14.7203   -4.0825 C   0  0
    0.1241  -15.7785   -2.9777 C   0  0
    1.3792  -15.5943   -2.1223 C   0  0
    1.3672  -14.1999   -1.4927 C   0  0
    2.5392  -13.2880   -3.4431 C   0  0
    3.4621  -13.4009   -4.0957 N   0  0
    1.1561    3.4366    0.0090 F   0  0
   -0.9431   -0.5668    0.0077 H   0  0
   -0.9765    1.9150    0.0216 H   0  0
    3.3265    1.9697   -0.0195 H   0  0
    3.3560   -0.5121   -0.0318 H   0  0
    2.1352   -2.5441    0.4878 H   0  0
    0.3391   -2.5679    0.5050 H   0  0
    1.2043   -1.9951   -2.1830 H   0  0
    0.4050   -9.2305   -1.5287 H   0  0
    2.2011   -9.2068   -1.5464 H   0  0
    1.3402  -11.7040   -0.9698 H   0  0
    0.0699  -12.5657   -4.2477 H   0  0
   -0.8057  -13.2172   -2.8210 H   0  0
   -0.8025  -14.8531   -4.6971 H   0  0
    0.9936  -14.8308   -4.7145 H   0  0
    0.1330  -16.7815   -3.4293 H   0  0
   -0.7693  -15.6689   -2.3453 H   0  0
    1.3963  -16.3547   -1.3276 H   0  0
    2.2736  -15.7032   -2.7533 H   0  0
    2.2698  -14.0680   -0.8780 H   0  0
    0.4737  -14.0917   -0.8603 H   0  0
  1  6  2  0
  1  2  1  0
  2  3  2  0
  3  4  1  0
  3 27  1  0
  4  5  2  0
  5  6  1  0
  6  7  1  0
  7  8  1  0
  8  9  1  0
  9 13  1  0
  9 10  2  0
 10 11  1  0
 11 12  2  0
 12 13  1  0
 12 14  1  0
 14 15  1  0
 15 16  1  0
 16 17  2  0
 16 18  1  0
 18 19  1  0
 19 24  1  0
 19 20  1  0
 19 25  1  0
 20 21  1  0
 21 22  1  0
 22 23  1  0
 23 24  1  0
 25 26  3  0
  1 28  1  0
  2 29  1  0
  4 30  1  0
  5 31  1  0
  7 32  1  0
  7 33  1  0
  8 34  1  0
 15 35  1  0
 15 36  1  0
 18 37  1  0
 20 38  1  0
 20 39  1  0
 21 40  1  0
 21 41  1  0
 22 42  1  0
 22 43  1  0
 23 44  1  0
 23 45  1  0
 24 46  1  0
 24 47  1  0
M  END
> <Name>
ZINC16335688

> <reference>
BDB50048505

> <quality>
0.707

> <status>
decoy

$$$$
ZINC06977184
  SciTegic06061311253D

 46 48  0  0  0  0            999 V2000
   -0.0127    1.0858    0.0080 C   0  0
   -0.7288    1.5792    1.2668 C   0  0
   -2.1032    1.0722    1.2772 N   0  0
   -2.5346   -0.1215    1.8326 C   0  0
   -1.8986   -1.1544    2.5041 C   0  0
   -2.6285   -2.2389    2.9455 C   0  0
   -3.9958   -2.3036    2.7215 C   0  0
   -4.6439   -1.2867    2.0569 C   0  0
   -3.9191   -0.1815    1.6035 C   0  0
   -4.2638    0.9499    0.9349 N   0  0
   -3.1995    1.6911    0.7462 C   0  0
   -3.1841    3.2510   -0.0731 S   0  0
   -4.9399    3.4077   -0.4838 C   0  0
   -5.1715    4.7067   -1.2117 C   0  0
   -5.4787    5.8512   -0.4973 C   0  0
   -5.6872    7.0446   -1.1569 C   0  0
   -5.5981    7.0937   -2.5495 C   0  0
   -5.2930    5.9339   -3.2645 C   0  0
   -5.0817    4.7483   -2.5918 C   0  0
   -5.8252    8.3671   -3.2631 C   0  0
   -5.7466    8.4068   -4.4746 O   0  0
   -6.1194    9.4843   -2.5702 O   0  0
   -6.3299   10.6993   -3.3369 C   0  0
   -4.9103   -3.6973    3.2925 S   0  0
   -6.0751   -3.7782    2.4825 O   0  0
   -3.9859   -4.7704    3.4069 O   0  0
   -5.4247   -3.3498    4.8277 N   0  0
   -0.5438    1.4499   -0.8838 H   0  0
    0.0029   -0.0141    0.0011 H   0  0
    1.0194    1.4662   -0.0004 H   0  0
   -0.1972    1.2144    2.1580 H   0  0
   -0.7444    2.6791    1.2738 H   0  0
   -0.8144   -1.1094    2.6846 H   0  0
   -2.1228   -3.0575    3.4785 H   0  0
   -5.7286   -1.3442    1.8835 H   0  0
   -5.5363    3.3947    0.4404 H   0  0
   -5.2424    2.5684   -1.1273 H   0  0
   -5.5568    5.8093    0.5991 H   0  0
   -5.9231    7.9555   -0.5871 H   0  0
   -5.2213    5.9655   -4.3617 H   0  0
   -4.8413    3.8338   -3.1539 H   0  0
   -7.1442   10.4824   -4.0439 H   0  0
   -5.4108   10.8614   -3.9191 H   0  0
   -6.5652   11.5659   -2.7015 H   0  0
   -5.7698   -4.1041    5.4383 H   0  0
   -5.3996   -2.3794    5.1720 H   0  0
  1  2  1  0
  2  3  1  0
  3 11  1  0
  3  4  1  0
  4  9  1  0
  4  5  2  0
  5  6  1  0
  6  7  2  0
  7  8  1  0
  7 24  1  0
  8  9  2  0
  9 10  1  0
 10 11  2  0
 11 12  1  0
 12 13  1  0
 13 14  1  0
 14 19  2  0
 14 15  1  0
 15 16  2  0
 16 17  1  0
 17 18  2  0
 17 20  1  0
 18 19  1  0
 20 21  2  0
 20 22  1  0
 22 23  1  0
 24 25  2  0
 24 26  2  0
 24 27  1  0
  1 28  1  0
  1 29  1  0
  1 30  1  0
  2 31  1  0
  2 32  1  0
  5 33  1  0
  6 34  1  0
  8 35  1  0
 13 36  1  0
 13 37  1  0
 15 38  1  0
 16 39  1  0
 18 40  1  0
 19 41  1  0
 23 42  1  0
 23 43  1  0
 23 44  1  0
 27 45  1  0
 27 46  1  0
M  END
> <Name>
ZINC06977184

> <reference>
BDB50048505

> <quality>
0.704

> <status>
decoy

$$$$
ZINC26268661
  SciTegic06061311253D

 46 48  0  0  0  0            999 V2000
  -13.0359    3.8153    1.5294 C   0  0
  -12.5637    3.6503    0.0835 C   0  0
  -11.1457    3.1402    0.0732 C   0  0
  -10.9038    1.7780    0.0646 C   0  0
   -9.6080    1.3045    0.0561 C   0  0
   -8.5401    2.2028    0.0557 C   0  0
   -8.7909    3.5755    0.0698 C   0  0
  -10.0914    4.0361    0.0729 C   0  0
   -7.1488    1.7022    0.0466 C   0  0
   -6.0103    2.3813    0.0502 N   0  0
   -4.8507    1.7674    0.0357 C   0  0
   -4.8035    0.4086    0.0281 C   0  0
   -6.5488    0.0179    0.0345 S   0  0
   -3.5733    2.5669    0.0337 C   0  0
   -2.4367    1.6634    0.0232 O   0  0
   -1.2094    2.2231    0.0201 C   0  0
   -1.0931    3.4337    0.0261 O   0  0
   -0.0166    1.3728    0.0096 C   0  0
    1.2939    1.8050   -0.0006 C   0  0
    2.1001    0.6630   -0.0144 C   0  0
    1.2859   -0.4200   -0.0125 C   0  0
    0.0021   -0.0041    0.0020 N   0  0
   -1.1769   -0.8737    0.0079 C   0  0
    3.8618    0.6367   -0.0309 S   0  0
    4.2916    1.8729    0.5224 O   0  0
    4.2543   -0.6174    0.5099 O   0  0
    4.3367    0.6375   -1.6173 N   0  0
  -12.3848    4.5336    2.0491 H   0  0
  -12.9928    2.8437    2.0434 H   0  0
  -14.0709    4.1876    1.5376 H   0  0
  -13.2151    2.9316   -0.4353 H   0  0
  -12.6068    4.6218   -0.4306 H   0  0
  -11.7465    1.0710    0.0645 H   0  0
   -9.4170    0.2212    0.0497 H   0  0
   -7.9535    4.2888    0.0784 H   0  0
  -10.2905    5.1179    0.0751 H   0  0
   -3.9331   -0.2640    0.0202 H   0  0
   -3.5417    3.2055   -0.8614 H   0  0
   -3.5320    3.1964    0.9348 H   0  0
    1.6386    2.8496    0.0017 H   0  0
    1.6177   -1.4687   -0.0213 H   0  0
   -1.7453   -0.5144   -0.8627 H   0  0
   -1.7295   -0.5239    0.8924 H   0  0
   -0.9882   -1.9574    0.0004 H   0  0
    4.4848   -0.2543   -2.1110 H   0  0
    4.4840    1.5297   -2.1103 H   0  0
  1  2  1  0
  2  3  1  0
  3  8  2  0
  3  4  1  0
  4  5  2  0
  5  6  1  0
  6  7  2  0
  6  9  1  0
  7  8  1  0
  9 13  1  0
  9 10  2  0
 10 11  1  0
 11 12  2  0
 11 14  1  0
 12 13  1  0
 14 15  1  0
 15 16  1  0
 16 17  2  0
 16 18  1  0
 18 22  1  0
 18 19  2  0
 19 20  1  0
 20 21  2  0
 20 24  1  0
 21 22  1  0
 22 23  1  0
 24 25  2  0
 24 26  2  0
 24 27  1  0
  1 28  1  0
  1 29  1  0
  1 30  1  0
  2 31  1  0
  2 32  1  0
  4 33  1  0
  5 34  1  0
  7 35  1  0
  8 36  1  0
 12 37  1  0
 14 38  1  0
 14 39  1  0
 19 40  1  0
 21 41  1  0
 23 42  1  0
 23 43  1  0
 23 44  1  0
 27 45  1  0
 27 46  1  0
M  END
> <Name>
ZINC26268661

> <reference>
BDB50048505

> <quality>
0.704

> <status>
decoy

$$$$
ZINC15764174
  SciTegic06061311253D

 45 47  0  0  0  0            999 V2000
    2.5761    4.5068   -1.4409 C   0  0
    2.2074    4.1617    0.0034 C   0  0
    1.0772    3.1649    0.0088 C   0  0
    1.1485    1.8079    0.0008 C   0  0
   -0.0126    1.0758    0.0080 C   0  0
   -1.2047    1.7829    0.0173 C   0  0
   -0.6290    3.4715    0.0268 S   0  0
   -2.5799    1.2756    0.0208 C   0  0
   -2.7860    0.0761    0.0152 O   0  0
   -3.6161    2.1374    0.0303 N   0  0
   -4.9305    1.6524    0.0337 N   0  0
   -5.9667    2.5142    0.0431 C   0  0
   -5.7613    3.7095    0.0487 O   0  0
   -7.3805    1.9926    0.0468 C   0  0
   -8.3583    3.1694    0.0577 C   0  0
   -9.7327    2.6623    0.0613 N   0  0
  -10.4802    2.3730    1.1473 C   0  0
  -10.1351    2.4854    2.3090 O   0  0
  -11.6753    1.9405    0.7122 O   0  0
  -11.6777    1.9490   -0.6391 C   0  0
  -10.5216    2.3788   -1.0634 N   0  0
  -12.8033    1.5392   -1.4943 C   0  0
  -14.0413    1.0736   -1.1298 C   0  0
  -14.9438    0.7526   -2.1180 C   0  0
  -14.5800    0.8956   -3.4192 C   0  0
  -12.9105    1.5114   -3.2763 S   0  0
    2.4866    1.1149   -0.0153 C   0  0
    1.7028    4.9410   -1.9496 H   0  0
    2.8906    3.5941   -1.9682 H   0  0
    3.4011    5.2344   -1.4456 H   0  0
    3.0811    3.7273    0.5112 H   0  0
    1.8929    5.0744    0.5308 H   0  0
    0.0023   -0.0241    0.0065 H   0  0
   -3.4417    3.1525    0.0351 H   0  0
   -5.1049    0.6373    0.0290 H   0  0
   -7.5495    1.3845   -0.8541 H   0  0
   -7.5421    1.3743    0.9421 H   0  0
   -8.1901    3.7777    0.9586 H   0  0
   -8.1989    3.7883   -0.8376 H   0  0
  -14.3073    0.9591   -0.0686 H   0  0
  -15.9473    0.3848   -1.8576 H   0  0
  -15.1641    0.6858   -4.3274 H   0  0
    3.0172    1.5019    0.8671 H   0  0
    3.0009    1.5114   -0.9031 H   0  0
    2.4207    0.0169   -0.0206 H   0  0
  1  2  1  0
  2  3  1  0
  3  7  1  0
  3  4  2  0
  4  5  1  0
  4 27  1  0
  5  6  2  0
  6  7  1  0
  6  8  1  0
  8  9  2  0
  8 10  1  0
 10 11  1  0
 11 12  1  0
 12 13  2  0
 12 14  1  0
 14 15  1  0
 15 16  1  0
 16 21  1  0
 16 17  1  0
 17 18  2  0
 17 19  1  0
 19 20  1  0
 20 21  2  0
 20 22  1  0
 22 26  1  0
 22 23  2  0
 23 24  1  0
 24 25  2  0
 25 26  1  0
  1 28  1  0
  1 29  1  0
  1 30  1  0
  2 31  1  0
  2 32  1  0
  5 33  1  0
 10 34  1  0
 11 35  1  0
 14 36  1  0
 14 37  1  0
 15 38  1  0
 15 39  1  0
 23 40  1  0
 24 41  1  0
 25 42  1  0
 27 43  1  0
 27 44  1  0
 27 45  1  0
M  END
> <Name>
ZINC15764174

> <reference>
BDB50048505

> <quality>
0.702

> <status>
decoy

$$$$
ZINC31624692
  SciTegic06061311253D

 48 50  0  0  0  0            999 V2000
   -4.1053   -7.4075    0.0084 C   0  0
   -2.8120   -6.6339    0.0007 C   0  0
   -2.2296   -6.2731   -1.1999 C   0  0
   -1.0433   -5.5635   -1.2070 C   0  0
   -0.4398   -5.2140   -0.0135 C   0  0
   -1.0197   -5.5790    1.1871 C   0  0
   -2.2083   -6.2848    1.1943 C   0  0
    0.8534   -4.4404   -0.0212 C   0  0
    0.5636   -3.0044   -0.0123 N   0  0
    1.5743   -2.1128   -0.0171 C   0  0
    2.7269   -2.5004   -0.0288 O   0  0
    1.2828   -0.6688   -0.0082 C   0  0
    0.1142   -0.0336    0.0043 N   0  0
    0.0761    1.2281    0.0103 N   0  0
    1.1749    1.9628    0.0046 C   0  0
    2.3999    0.7284   -0.0110 S   0  0
    1.3253    3.4623    0.0097 C   0  0
    1.3851    3.9380    1.3802 O   0  0
    1.5199    5.2667    1.5613 C   0  0
    1.5857    6.0073    0.6001 O   0  0
    1.5876    5.8210    2.9242 C   0  0
    1.3899    4.9912    4.0318 C   0  0
    1.4598    5.5149    5.3037 C   0  0
    1.7149    6.8644    5.4928 C   0  0
    1.9066    7.6977    4.4103 C   0  0
    1.8453    7.1874    3.1193 C   0  0
    2.0374    8.0241    2.0282 N   0  0
    2.4243    9.4217    2.2360 C   0  0
   -4.7998   -6.7972    0.6044 H   0  0
   -3.8910   -8.3168    0.5891 H   0  0
   -4.4961   -7.6312   -0.9952 H   0  0
   -2.7101   -6.5507   -2.1497 H   0  0
   -0.5795   -5.2770   -2.1624 H   0  0
   -0.5353   -5.3078    2.1368 H   0  0
   -2.6737   -6.5686    2.1497 H   0  0
    1.4418   -4.7007    0.8710 H   0  0
    1.4272   -4.6923   -0.9252 H   0  0
   -0.4126   -2.6761   -0.0024 H   0  0
    2.2514    3.7398   -0.5149 H   0  0
    0.4642    3.9200   -0.4993 H   0  0
    1.1788    3.9213    3.8876 H   0  0
    1.3124    4.8588    6.1742 H   0  0
    1.7648    7.2734    6.5127 H   0  0
    2.1082    8.7673    4.5693 H   0  0
    1.9079    7.6622    1.0726 H   0  0
    3.3489    9.3761    2.8302 H   0  0
    1.6417    9.8404    2.8858 H   0  0
    2.5500    9.9952    1.3058 H   0  0
  1  2  1  0
  2  7  2  0
  2  3  1  0
  3  4  2  0
  4  5  1  0
  5  6  2  0
  5  8  1  0
  6  7  1  0
  8  9  1  0
  9 10  1  0
 10 11  2  0
 10 12  1  0
 12 16  1  0
 12 13  2  0
 13 14  1  0
 14 15  2  0
 15 16  1  0
 15 17  1  0
 17 18  1  0
 18 19  1  0
 19 20  2  0
 19 21  1  0
 21 26  2  0
 21 22  1  0
 22 23  2  0
 23 24  1  0
 24 25  2  0
 25 26  1  0
 26 27  1  0
 27 28  1  0
  1 29  1  0
  1 30  1  0
  1 31  1  0
  3 32  1  0
  4 33  1  0
  6 34  1  0
  7 35  1  0
  8 36  1  0
  8 37  1  0
  9 38  1  0
 17 39  1  0
 17 40  1  0
 22 41  1  0
 23 42  1  0
 24 43  1  0
 25 44  1  0
 27 45  1  0
 28 46  1  0
 28 47  1  0
 28 48  1  0
M  END
> <Name>
ZINC31624692

> <reference>
BDB50048505

> <quality>
0.700

> <status>
decoy

$$$$
ZINC29651702
  SciTegic06061311253D

 48 50  0  0  0  0            999 V2000
   -5.5564   17.1772    4.5149 C   0  0
   -4.7567   16.5257    3.3849 C   0  0
   -5.4047   17.0848    1.7854 S   0  0
   -5.1337   18.4679    1.6040 O   0  0
   -6.7132   16.5700    1.5805 O   0  0
   -4.4674   16.3189    0.6553 N   0  0
   -4.5075   14.9270    0.5419 C   0  0
   -5.7294   14.2638    0.5490 C   0  0
   -5.7743   12.8870    0.4375 C   0  0
   -4.6065   12.1610    0.3184 C   0  0
   -3.3745   12.8171    0.3102 C   0  0
   -3.3286   14.2065    0.4280 C   0  0
   -2.1222   12.0419    0.1832 C   0  0
   -1.0504   12.6153    0.1763 O   0  0
   -2.1689   10.6992    0.0751 N   0  0
   -0.9836    9.9567    0.0664 C   0  0
   -0.8987    8.7918   -0.6879 C   0  0
    0.2700    8.0538   -0.7005 C   0  0
    1.3631    8.4706    0.0313 C   0  0
    1.2871    9.6374    0.7968 C   0  0
    0.1060   10.3825    0.8091 C   0  0
    2.4181   10.0705    1.5611 C   0  0
    3.3453   10.4255    2.1876 C   0  0
    4.4762   10.8586    2.9518 C   0  0
    4.3938   12.0293    3.7104 C   0  0
    5.4931   12.4305    4.4473 C   0  0
    6.6446   11.6562    4.3961 C   0  0
    6.6583   10.5086    3.6245 C   0  0
    5.5971   10.1437    2.9349 N   0  0
   -6.6150   16.8909    4.4289 H   0  0
   -5.4662   18.2713    4.4460 H   0  0
   -5.1640   16.8386    5.4852 H   0  0
   -4.8468   15.4316    3.4539 H   0  0
   -3.6984   16.8128    3.4716 H   0  0
   -3.8549   16.8687    0.0360 H   0  0
   -6.6636   14.8368    0.6437 H   0  0
   -6.7441   12.3680    0.4437 H   0  0
   -4.6467   11.0653    0.2299 H   0  0
   -2.3603   14.7285    0.4305 H   0  0
   -3.0774   10.2199   -0.0011 H   0  0
   -1.7650    8.4562   -1.2769 H   0  0
    0.3289    7.1309   -1.2961 H   0  0
    2.2939    7.8847    0.0122 H   0  0
    0.0409   11.3040    1.4062 H   0  0
    3.4679   12.6231    3.7212 H   0  0
    5.4561   13.3430    5.0605 H   0  0
    7.5384   11.9531    4.9645 H   0  0
    7.5683    9.8918    3.5861 H   0  0
  1  2  1  0
  2  3  1  0
  3  4  2  0
  3  5  2  0
  3  6  1  0
  6  7  1  0
  7 12  2  0
  7  8  1  0
  8  9  2  0
  9 10  1  0
 10 11  2  0
 11 12  1  0
 11 13  1  0
 13 14  2  0
 13 15  1  0
 15 16  1  0
 16 21  2  0
 16 17  1  0
 17 18  2  0
 18 19  1  0
 19 20  2  0
 20 21  1  0
 20 22  1  0
 22 23  3  0
 23 24  1  0
 24 29  2  0
 24 25  1  0
 25 26  2  0
 26 27  1  0
 27 28  2  0
 28 29  1  0
  1 30  1  0
  1 31  1  0
  1 32  1  0
  2 33  1  0
  2 34  1  0
  6 35  1  0
  8 36  1  0
  9 37  1  0
 10 38  1  0
 12 39  1  0
 15 40  1  0
 17 41  1  0
 18 42  1  0
 19 43  1  0
 21 44  1  0
 25 45  1  0
 26 46  1  0
 27 47  1  0
 28 48  1  0
M  END
> <Name>
ZINC29651702

> <reference>
BDB50048505

> <quality>
0.694

> <status>
decoy

$$$$
ZINC05790720
  SciTegic06061311253D

 46 48  0  0  0  0            999 V2000
    3.1147   -4.5980    1.0975 C   0  0
    1.9110   -3.6569    1.0171 C   0  0
    1.5527   -3.4578   -0.3518 O   0  0
    0.5021   -2.6470   -0.5986 C   0  0
   -0.0344   -2.0506    0.3166 O   0  0
    0.0244   -2.4905   -1.9218 C   0  0
   -1.0968   -1.7742   -2.2913 C   0  0
   -1.2089   -1.8918   -3.7477 C   0  0
   -2.1157   -1.3861   -4.6850 C   0  0
   -1.9457   -1.6741   -6.0233 C   0  0
   -0.8733   -2.4588   -6.4417 C   0  0
    0.0292   -2.9566   -5.5301 C   0  0
   -0.1236   -2.6786   -4.1736 C   0  0
    0.6068   -3.0333   -3.0607 N   0  0
   -2.8282   -1.1898   -6.9378 O   0  0
   -2.5934   -1.5254   -8.3069 C   0  0
   -1.9535   -1.0829   -1.4476 N   0  5
   -3.5748   -1.4201   -1.4565 S   0  0
   -3.9951   -1.3579   -2.8124 O   0  0
   -4.1616   -0.6197   -0.4395 O   0  0
   -3.7610   -3.0968   -0.9479 C   0  0
   -3.8592   -4.0991   -1.8952 C   0  0
   -4.0048   -5.4144   -1.4976 C   0  0
   -4.0523   -5.7285   -0.1497 C   0  0
   -3.9538   -4.7241    0.7978 C   0  0
   -3.8082   -3.4091    0.3977 C   0  0
   -4.0058   -5.0642    2.2650 C   0  0
   -4.1950   -7.0141    0.2402 F   0  0
    3.9645   -4.1550    0.5575 H   0  0
    2.8561   -5.5655    0.6425 H   0  0
    3.3911   -4.7517    2.1511 H   0  0
    1.0616   -4.1008    1.5571 H   0  0
    2.1696   -2.6894    1.4721 H   0  0
   -2.9599   -0.7620   -4.3566 H   0  0
   -0.7468   -2.6826   -7.5112 H   0  0
    0.8722   -3.5747   -5.8728 H   0  0
    1.4574   -3.6140   -3.0712 H   0  0
   -2.5786   -2.6241   -8.3578 H   0  0
   -1.5825   -1.1629   -8.5452 H   0  0
   -3.3471   -1.0986   -8.9849 H   0  0
   -3.8214   -3.8493   -2.9658 H   0  0
   -4.0829   -6.2117   -2.2514 H   0  0
   -3.7299   -2.6108    1.1505 H   0  0
   -3.1955   -5.7921    2.4184 H   0  0
   -4.9557   -5.6022    2.4000 H   0  0
   -3.9185   -4.1908    2.9280 H   0  0
  1  2  1  0
  2  3  1  0
  3  4  1  0
  4  5  2  0
  4  6  1  0
  6 14  1  0
  6  7  2  0
  7  8  1  0
  7 17  1  0
  8 13  1  0
  8  9  2  0
  9 10  1  0
 10 11  2  0
 10 15  1  0
 11 12  1  0
 12 13  2  0
 13 14  1  0
 15 16  1  0
 17 18  1  0
 18 19  2  0
 18 20  2  0
 18 21  1  0
 21 26  2  0
 21 22  1  0
 22 23  2  0
 23 24  1  0
 24 25  2  0
 24 28  1  0
 25 26  1  0
 25 27  1  0
  1 29  1  0
  1 30  1  0
  1 31  1  0
  2 32  1  0
  2 33  1  0
  9 34  1  0
 11 35  1  0
 12 36  1  0
 14 37  1  0
 16 38  1  0
 16 39  1  0
 16 40  1  0
 22 41  1  0
 23 42  1  0
 26 43  1  0
 27 44  1  0
 27 45  1  0
 27 46  1  0
M  CHG  1  17  -1
M  END
> <Name>
ZINC05790720

> <reference>
BDB50048505

> <quality>
0.694

> <status>
decoy

$$$$
ZINC28674768
  SciTegic06061311253D

 42 44  0  0  0  0            999 V2000
    9.4527   11.6395    0.9063 C   0  0
    8.6334   11.2028   -0.0179 C   0  0
    8.2024    9.7588   -0.0215 C   0  0
    6.7392    9.6859   -0.0085 N   0  0
    6.1243    8.4866   -0.0091 C   0  0
    6.7835    7.4656   -0.0205 O   0  0
    4.7782    8.4195    0.0028 N   0  0
    4.1633    7.2202    0.0022 C   0  0
    4.8209    6.2018   -0.0092 O   0  0
    2.6582    7.1452    0.0155 C   0  0
    2.2429    5.7538    0.0121 O   0  0
    0.9161    5.5107    0.0229 C   0  0
    0.1282    6.4371    0.0350 O   0  0
    0.4241    4.1306    0.0202 C   0  0
   -0.8863    3.6717    0.0303 C   0  0
   -1.1096    2.3248    0.0190 C   0  0
   -0.0179    1.4677    0.0101 C   0  0
    1.3558    2.6079    0.0031 S   0  0
    0.0021   -0.0041    0.0020 C   0  0
    1.0384   -0.8171   -0.0118 N   0  0
    0.9103   -2.1515   -0.0174 C   0  0
    1.9360   -3.1282   -0.0315 C   0  0
    1.6355   -4.4537   -0.0358 C   0  0
    0.3223   -4.9043   -0.0258 C   0  0
   -0.7096   -3.9847   -0.0115 C   0  0
   -0.4178   -2.6426   -0.0075 C   0  0
   -1.3738   -1.1453    0.0164 S   0  0
    9.8261   10.9522    1.6797 H   0  0
    9.7673   12.6935    0.9089 H   0  0
    8.2601   11.8901   -0.7913 H   0  0
    8.5856    9.2639   -0.9260 H   0  0
    8.6019    9.2535    0.8702 H   0  0
    6.1805   10.5511    0.0011 H   0  0
    4.2195    9.2847    0.0124 H   0  0
    2.2743    7.6397    0.9200 H   0  0
    2.2570    7.6490   -0.8762 H   0  0
   -1.7282    4.3795    0.0471 H   0  0
   -2.1350    1.9266    0.0170 H   0  0
    2.9889   -2.8100   -0.0391 H   0  0
    2.4540   -5.1885   -0.0475 H   0  0
    0.1052   -5.9826   -0.0292 H   0  0
   -1.7556   -4.3249   -0.0034 H   0  0
  1  2  2  0
  2  3  1  0
  3  4  1  0
  4  5  1  0
  5  6  2  0
  5  7  1  0
  7  8  1  0
  8  9  2  0
  8 10  1  0
 10 11  1  0
 11 12  1  0
 12 13  2  0
 12 14  1  0
 14 18  1  0
 14 15  2  0
 15 16  1  0
 16 17  2  0
 17 18  1  0
 17 19  1  0
 19 27  1  0
 19 20  2  0
 20 21  1  0
 21 26  1  0
 21 22  2  0
 22 23  1  0
 23 24  2  0
 24 25  1  0
 25 26  2  0
 26 27  1  0
  1 28  1  0
  1 29  1  0
  2 30  1  0
  3 31  1  0
  3 32  1  0
  4 33  1  0
  7 34  1  0
 10 35  1  0
 10 36  1  0
 15 37  1  0
 16 38  1  0
 22 39  1  0
 23 40  1  0
 24 41  1  0
 25 42  1  0
M  END
> <Name>
ZINC28674768

> <reference>
BDB50048505

> <quality>
0.689

> <status>
decoy

$$$$
ZINC09686734
  SciTegic06061311253D

 45 47  0  0  0  0            999 V2000
    6.7123   -0.2496   -2.6818 C   0  0
    5.9351   -0.7168   -1.4495 C   0  0
    4.6443   -0.0530   -1.4110 O   0  0
    3.8309   -0.3564   -0.3803 C   0  0
    4.1904   -1.1538    0.4632 O   0  0
    2.5051    0.2790   -0.2761 C   0  0
    1.6597   -0.0347    0.7929 C   0  0
    0.4272    0.5586    0.8871 C   0  0
    0.0169    1.4724   -0.0801 C   0  0
    0.8561    1.7869   -1.1456 C   0  0
    2.0899    1.1973   -1.2458 C   0  0
   -1.2357    2.0676    0.0153 N   0  5
   -1.4998    3.2676    1.1256 S   0  0
   -2.8425    3.6972    0.9476 O   0  0
   -1.0133    2.7838    2.3700 O   0  0
   -0.4724    4.6272    0.6775 C   0  0
   -0.7768    5.7147   -0.0768 C   0  0
    0.1905    6.6694   -0.2993 C   0  0
    1.4367    6.4823    0.2412 C   0  0
    1.2382    4.9253    1.0920 S   0  0
    2.6294    7.3421    0.1445 C   0  0
    3.9198    6.9278   -0.1115 C   0  0
    4.7338    8.0600   -0.1190 C   0  0
    3.9935    9.1109    0.1263 N   0  0
    2.6664    8.6977    0.2971 N   0  0
    6.2208    8.0710   -0.3637 C   0  0
    4.3685    5.5080   -0.3440 C   0  0
    6.8620    0.8390   -2.6312 H   0  0
    6.1451   -0.4992   -3.5907 H   0  0
    7.6903   -0.7521   -2.7116 H   0  0
    5.7856   -1.8054   -1.5011 H   0  0
    6.5022   -0.4672   -0.5406 H   0  0
    1.9832   -0.7566    1.5573 H   0  0
   -0.2382    0.3124    1.7277 H   0  0
    0.5289    2.5092   -1.9079 H   0  0
    2.7524    1.4463   -2.0879 H   0  0
   -1.7834    5.8316   -0.5047 H   0  0
   -0.0322    7.5644   -0.8988 H   0  0
    1.8621    9.3078    0.5014 H   0  0
    6.3091    7.5548   -1.3310 H   0  0
    6.5937    7.3616    0.3898 H   0  0
    6.7138    9.0539   -0.3349 H   0  0
    3.7159    5.1849   -1.1684 H   0  0
    3.9951    4.9914    0.5525 H   0  0
    5.4412    5.3567   -0.5351 H   0  0
  1  2  1  0
  2  3  1  0
  3  4  1  0
  4  5  2  0
  4  6  1  0
  6 11  2  0
  6  7  1  0
  7  8  2  0
  8  9  1  0
  9 10  2  0
  9 12  1  0
 10 11  1  0
 12 13  1  0
 13 14  2  0
 13 15  2  0
 13 16  1  0
 16 20  1  0
 16 17  2  0
 17 18  1  0
 18 19  2  0
 19 20  1  0
 19 21  1  0
 21 25  1  0
 21 22  2  0
 22 23  1  0
 22 27  1  0
 23 24  2  0
 23 26  1  0
 24 25  1  0
  1 28  1  0
  1 29  1  0
  1 30  1  0
  2 31  1  0
  2 32  1  0
  7 33  1  0
  8 34  1  0
 10 35  1  0
 11 36  1  0
 17 37  1  0
 18 38  1  0
 25 39  1  0
 26 40  1  0
 26 41  1  0
 26 42  1  0
 27 43  1  0
 27 44  1  0
 27 45  1  0
M  CHG  1  12  -1
M  END
> <Name>
ZINC09686734

> <reference>
BDB50048505

> <quality>
0.685

> <status>
decoy

$$$$
ZINC15102889
  SciTegic06061311253D

 51 53  0  0  1  0            999 V2000
    6.2269  -11.0063    5.1273 C   0  0
    4.9477  -10.6637    4.4080 C   0  0
    4.0832   -9.7278    4.9452 C   0  0
    2.9100   -9.4120    4.2878 C   0  0
    2.5995  -10.0347    3.0876 C   0  0
    3.4658  -10.9775    2.5536 C   0  0
    4.6408  -11.2854    3.2118 C   0  0
    1.4460   -9.7257    2.4389 O   0  0
    1.1915  -10.4060    1.2083 C   0  0
   -0.1426   -9.9307    0.6293 C   0  0
   -1.3820   -7.8996    0.1807 C   0  0
    0.7187   -8.3110   -0.9509 C   0  0
    1.0052   -6.8435   -1.1392 C   0  0
    1.7063   -6.4443   -2.2288 N   0  0
    1.9884   -5.1445   -2.4437 C   0  0
    2.6184   -4.7960   -3.4263 O   0  0
    1.5127   -4.1505   -1.4545 C   0  0
    1.6689   -2.7631   -1.4526 C   0  0
    1.1483   -2.0224   -0.4310 C   0  0
    0.3817   -3.2596    0.6023 S   0  0
    0.7935   -4.6908   -0.3636 C   0  0
    0.5706   -5.9937   -0.2487 N   0  0
    1.2003   -0.5721   -0.2347 C   0  0
    1.7706    0.1314   -1.0466 O   0  0
    0.6157   -0.0164    0.8466 O   0  0
    0.7068    1.4269    0.9765 C   0  0
    2.4142   -2.0854   -2.5734 C   0  0
   -0.0338   -8.4920    0.3083 N   0  0
    7.0267  -10.8105    4.3979 H   0  0
    6.1862  -12.0947    5.2811 H   0  0
    6.3702  -10.4536    6.0675 H   0  0
    4.3299   -9.2343    5.8968 H   0  0
    2.2226   -8.6674    4.7156 H   0  0
    3.2174  -11.4795    1.6069 H   0  0
    5.3327  -12.0257    2.7838 H   0  0
    1.1462  -11.4900    1.3898 H   0  0
    1.9992  -10.1872    0.4943 H   0  0
   -0.3693  -10.4962   -0.2866 H   0  0
   -0.9420  -10.0832    1.3694 H   0  0
   -1.9248   -8.0233    1.1294 H   0  0
   -1.9306   -8.4137   -0.6223 H   0  0
   -1.2964   -6.8293   -0.0581 H   0  0
    0.1177   -8.6803   -1.7949 H   0  0
    1.6656   -8.8682   -0.8967 H   0  0
    2.0300   -7.1493   -2.9063 H   0  0
    0.2624    1.8488    0.0630 H   0  0
    1.7794    1.6711    0.9745 H   0  0
    0.2072    1.8034    1.8813 H   0  0
    1.8909   -2.3937   -3.4905 H   0  0
    3.4039   -2.5653   -2.5881 H   0  0
    2.4771   -0.9920   -2.4710 H   0  0
  1  2  1  0
  2  7  2  0
  2  3  1  0
  3  4  2  0
  4  5  1  0
  5  6  2  0
  5  8  1  0
  6  7  1  0
  8  9  1  0
  9 10  1  0
 10 28  1  0
 11 28  1  0
 12 13  1  0
 12 28  1  0
 13 22  2  0
 13 14  1  0
 14 15  1  0
 15 16  2  0
 15 17  1  0
 17 21  2  0
 17 18  1  0
 18 19  2  0
 18 27  1  0
 19 20  1  0
 19 23  1  0
 20 21  1  0
 21 22  1  0
 23 24  2  0
 23 25  1  0
 25 26  1  0
  1 29  1  0
  1 30  1  0
  1 31  1  0
  3 32  1  0
  4 33  1  0
  6 34  1  0
  7 35  1  0
  9 36  1  0
  9 37  1  0
 10 38  1  0
 10 39  1  0
 11 40  1  0
 11 41  1  0
 11 42  1  0
 12 43  1  0
 12 44  1  0
 14 45  1  0
 26 46  1  0
 26 47  1  0
 26 48  1  0
 27 49  1  0
 27 50  1  0
 27 51  1  0
M  END
> <Name>
ZINC15102889

> <reference>
BDB50048505

> <quality>
0.684

> <status>
decoy

$$$$
ZINC15796912
  SciTegic06061311253D

 50 51  0  0  1  0            999 V2000
   10.3066    2.0925    6.5613 C   0  0
    9.0911    1.7975    7.4425 C   0  0  2  0  0  0
    9.3861    0.5863    8.3296 C   0  0
    8.1706    0.2914    9.2107 C   0  0
    6.9594   -0.0080    8.3252 C   0  0
    6.6643    1.2031    7.4381 C   0  0
    7.8798    1.4981    6.5570 C   0  0  1  0  0  0
    7.5973    2.6578    5.7076 N   0  0
    6.9503    2.4939    4.5367 C   0  0
    6.6020    1.3863    4.1862 O   0  0
    6.6597    3.6869    3.6629 C   0  0
    5.9223    3.2287    2.4031 C   0  0
    5.6398    4.3884    1.5537 N   0  0
    5.1915    4.1687   -0.0253 S   0  0
    6.1258    3.2592   -0.5900 O   0  0
    4.9652    5.4628   -0.5670 O   0  0
    3.6326    3.3475   -0.0147 C   0  0
    2.4637    4.0858    0.0004 C   0  0
    1.2402    3.4444    0.0087 C   0  0
    1.1850    2.0582    0.0018 C   0  0
    2.3594    1.3196   -0.0077 C   0  0
    3.5803    1.9659   -0.0212 C   0  0
   -0.0173    1.4248    0.0099 O   0  0
    0.0021   -0.0041    0.0020 C   0  0  1  0  0  0
    0.6787   -0.4675    1.1354 F   0  0
   -1.3104   -0.4883    0.0119 F   0  0
    0.6569   -0.4552   -1.1490 F   0  0
   10.0956    2.9634    5.9233 H   0  0
   10.5228    1.2190    5.9286 H   0  0
   11.1779    2.3078    7.1973 H   0  0
    8.8760    2.6715    8.0749 H   0  0
   10.2567    0.8005    8.9669 H   0  0
    9.6007   -0.2879    7.6973 H   0  0
    8.3823   -0.5797    9.8482 H   0  0
    7.9544    1.1649    9.8434 H   0  0
    6.0848   -0.2200    8.9577 H   0  0
    7.1747   -0.8816    7.6924 H   0  0
    5.7939    0.9877    6.8010 H   0  0
    6.4491    2.0778    8.0695 H   0  0
    8.0950    0.6241    5.9246 H   0  0
    7.8931    3.5984    6.0052 H   0  0
    6.0319    4.4018    4.2150 H   0  0
    7.6045    4.1727    3.3776 H   0  0
    4.9766    2.7436    2.6864 H   0  0
    6.5498    2.5141    1.8503 H   0  0
    5.7200    5.3404    1.9386 H   0  0
    2.5080    5.1849    0.0058 H   0  0
    0.3105    4.0323    0.0208 H   0  0
    2.3184    0.2204   -0.0045 H   0  0
    4.5116    1.3808   -0.0371 H   0  0
  1  2  1  0
  2  7  1  0
  2  3  1  0
  3  4  1  0
  4  5  1  0
  5  6  1  0
  6  7  1  0
  7  8  1  0
  8  9  1  0
  9 10  2  0
  9 11  1  0
 11 12  1  0
 12 13  1  0
 13 14  1  0
 14 15  2  0
 14 16  2  0
 14 17  1  0
 17 22  2  0
 17 18  1  0
 18 19  2  0
 19 20  1  0
 20 21  2  0
 20 23  1  0
 21 22  1  0
 23 24  1  0
 24 25  1  0
 24 26  1  0
 24 27  1  0
  1 28  1  0
  1 29  1  0
  1 30  1  0
  2 31  1  0
  3 32  1  0
  3 33  1  0
  4 34  1  0
  4 35  1  0
  5 36  1  0
  5 37  1  0
  6 38  1  0
  6 39  1  0
  7 40  1  0
  8 41  1  0
 11 42  1  0
 11 43  1  0
 12 44  1  0
 12 45  1  0
 13 46  1  0
 18 47  1  0
 19 48  1  0
 21 49  1  0
 22 50  1  0
M  END
> <Name>
ZINC15796912

> <reference>
BDB50048505

> <quality>
0.680

> <status>
decoy

$$$$
ZINC26558834
  SciTegic06061311253D

 47 49  0  0  0  0            999 V2000
  -12.7087   -1.5112    2.9402 C   0  0
  -11.2289   -1.1227    2.9348 C   0  0
  -10.7427   -0.9859    1.4906 C   0  0
   -9.2628   -0.5974    1.4853 C   0  0
   -8.7767   -0.4606    0.0410 C   0  0
   -7.3191   -0.0780    0.0358 C   0  0
   -6.2432   -0.8398    0.0271 N   0  0
   -5.0782   -0.3567    0.0243 N   0  0
   -4.8636    0.9518    0.0301 C   0  0
   -6.5544    1.5410    0.0486 S   0  0
   -3.6693    1.6621    0.0283 N   0  0
   -2.4935    1.0033    0.0192 C   0  0
   -2.4779   -0.2119    0.0125 O   0  0
   -1.2214    1.7598    0.0174 C   0  0
   -1.2453    3.1604    0.0319 C   0  0
   -0.0823    3.8755    0.0242 C   0  0
    1.1428    3.2095    0.0085 C   0  0
    1.1846    1.7969    0.0004 C   0  0
   -0.0126    1.0758    0.0080 C   0  0
    2.3858    1.1724   -0.0149 N   0  0
    3.5092    1.8465   -0.0224 C   0  0
    3.5591    3.2111   -0.0160 N   0  0
    2.4197    3.9406   -0.0003 C   0  0
    2.4499    5.1573    0.0056 O   0  5
    4.8568    3.8908   -0.0256 C   0  0
    5.2940    4.1348   -1.4714 C   0  0
    5.0263    0.9506   -0.0424 S   0  0
  -12.8389   -2.4705    2.4178 H   0  0
  -13.2949   -0.7334    2.4289 H   0  0
  -13.0589   -1.6097    3.9783 H   0  0
  -11.0997   -0.1632    3.4570 H   0  0
  -10.6426   -1.9004    3.4461 H   0  0
  -10.8713   -1.9452    0.9679 H   0  0
  -11.3271   -0.2077    0.9779 H   0  0
   -9.1336    0.3621    2.0075 H   0  0
   -8.6765   -1.3751    1.9966 H   0  0
   -8.9053   -1.4199   -0.4817 H   0  0
   -9.3611    0.3176   -0.4716 H   0  0
   -3.6826    2.6920    0.0339 H   0  0
   -2.2099    3.6888    0.0497 H   0  0
   -0.1116    4.9751    0.0304 H   0  0
    0.0023   -0.0241    0.0065 H   0  0
    4.7702    4.8542    0.4982 H   0  0
    5.6044    3.2634    0.4818 H   0  0
    4.5480    4.7631   -1.9801 H   0  0
    5.3812    3.1722   -1.9966 H   0  0
    6.2684    4.6452   -1.4794 H   0  0
  1  2  1  0
  2  3  1  0
  3  4  1  0
  4  5  1  0
  5  6  1  0
  6 10  1  0
  6  7  2  0
  7  8  1  0
  8  9  2  0
  9 10  1  0
  9 11  1  0
 11 12  1  0
 12 13  2  0
 12 14  1  0
 14 19  2  0
 14 15  1  0
 15 16  2  0
 16 17  1  0
 17 23  2  0
 17 18  1  0
 18 19  1  0
 18 20  2  0
 20 21  1  0
 21 22  1  0
 21 27  2  0
 22 23  1  0
 22 25  1  0
 23 24  1  0
 25 26  1  0
  1 28  1  0
  1 29  1  0
  1 30  1  0
  2 31  1  0
  2 32  1  0
  3 33  1  0
  3 34  1  0
  4 35  1  0
  4 36  1  0
  5 37  1  0
  5 38  1  0
 11 39  1  0
 15 40  1  0
 16 41  1  0
 19 42  1  0
 25 43  1  0
 25 44  1  0
 26 45  1  0
 26 46  1  0
 26 47  1  0
M  CHG  1  24  -1
M  END
> <Name>
ZINC26558834

> <reference>
BDB50048505

> <quality>
0.677

> <status>
decoy

$$$$
ZINC31162261
  SciTegic06061311253D

 39 40  0  0  1  0            999 V2000
    2.3526    0.4124    1.6800 C   0  0
    2.3903    1.0201    0.3431 N   0  0
    1.2770    1.9610    0.1610 C   0  0
   -0.0267    1.2053    0.1746 C   0  0
   -0.0283    0.0014    0.3216 O   0  0
   -1.1906    1.8666    0.0178 N   0  0
   -2.3914    1.1550   -0.0860 C   0  0
   -2.4118   -0.0887   -0.7039 C   0  0
   -3.5969   -0.7908   -0.8007 C   0  0
   -4.7657   -0.2516   -0.2921 C   0  0
   -4.7491    0.9895    0.3193 C   0  0
   -3.5653    1.6937    0.4234 C   0  0
   -6.0235    1.5734    0.8724 C   0  0  1  0  0  0
   -5.7563    2.8249    1.4376 F   0  0
   -6.9569    1.7175   -0.1597 F   0  0
   -6.5405    0.7197    1.8528 F   0  0
   -6.2550   -1.1342   -0.4209 Cl  0  0
    3.6810    1.6783    0.1003 C   0  0
    4.7730    0.6408    0.0535 C   0  0
    4.5027   -0.5315    0.2072 O   0  5
    6.0500    1.0156   -0.1593 N   0  0
    7.0572    0.0587   -0.2025 C   0  0
    6.9651   -1.2485   -0.0539 N   0  0
    8.0308   -2.0214   -0.1294 C   0  0
    9.2353   -1.4411   -0.3526 C   0  0
    8.7606    0.2784   -0.4584 S   0  0
    1.3979   -0.1204    1.8015 H   0  0
    2.4185    1.2098    2.4349 H   0  0
    3.1911   -0.2890    1.8020 H   0  0
    1.3886    2.4809   -0.8020 H   0  0
    1.2818    2.6975    0.9780 H   0  0
   -1.1964    2.8957   -0.0256 H   0  0
   -1.4847   -0.5140   -1.1158 H   0  0
   -3.6120   -1.7796   -1.2825 H   0  0
   -3.5527    2.6804    0.9095 H   0  0
    3.8885    2.3916    0.9116 H   0  0
    3.6444    2.2148   -0.8593 H   0  0
    7.9443   -3.1119   -0.0139 H   0  0
   10.2302   -1.9015   -0.4435 H   0  0
  1  2  1  0
  2  3  1  0
  2 18  1  0
  3  4  1  0
  4  5  2  0
  4  6  1  0
  6  7  1  0
  7 12  2  0
  7  8  1  0
  8  9  2  0
  9 10  1  0
 10 11  2  0
 10 17  1  0
 11 12  1  0
 11 13  1  0
 13 14  1  0
 13 15  1  0
 13 16  1  0
 18 19  1  0
 19 20  1  0
 19 21  2  0
 21 22  1  0
 22 26  1  0
 22 23  2  0
 23 24  1  0
 24 25  2  0
 25 26  1  0
  1 27  1  0
  1 28  1  0
  1 29  1  0
  3 30  1  0
  3 31  1  0
  6 32  1  0
  8 33  1  0
  9 34  1  0
 12 35  1  0
 18 36  1  0
 18 37  1  0
 24 38  1  0
 25 39  1  0
M  CHG  1  20  -1
M  END
> <Name>
ZINC31162261

> <reference>
BDB50048505

> <quality>
0.677

> <status>
decoy

$$$$
ZINC31228051
  SciTegic06061311253D

 52 54  0  0  0  0            999 V2000
   -3.7580   -2.3165    0.0386 C   0  0
   -2.3601   -2.8790    0.0148 C   0  0
   -2.1358   -4.2287   -0.0006 C   0  0
   -0.8347   -4.6854   -0.0149 C   0  0
    0.0958   -3.2226   -0.0156 S   0  0
   -1.2470   -2.0485    0.0030 C   0  0
   -1.1920   -0.6331    0.0100 C   0  0
   -2.2215    0.0157    0.0234 O   0  0
    0.0021   -0.0041    0.0020 O   0  0
   -0.0173    1.4248    0.0099 C   0  0
    1.3965    1.9464   -0.0008 C   0  0
    2.3289    1.1709   -0.0139 O   0  0
    1.6248    3.2747    0.0041 N   0  5
    2.9992    3.7818   -0.0063 C   0  0  2  0  0  0
    3.7419    3.3214    1.2650 C   0  0
    4.6369    4.5297    1.6397 C   0  0
    3.7327    5.7422    1.3061 C   0  0
    2.9936    5.3203    0.0195 C   0  0
    3.7049    3.3001   -1.2049 C   0  0
    4.2495    2.9283   -2.1299 N   0  0
   -0.3802   -5.9979   -0.0261 N   0  0
    0.9431   -6.2527   -0.0400 C   0  0
    1.7372   -5.3360   -0.0428 O   0  0
    1.4362   -7.6768   -0.0522 C   0  0  2  0  0  0
    0.9961   -8.3994    1.2378 C   0  0
    2.1948   -9.3157    1.5877 C   0  0
    3.4157   -8.4387    1.2145 C   0  0
    2.9747   -7.7018   -0.0669 C   0  0
   -3.8038   -1.6570   -0.8406 H   0  0
   -3.7777   -1.6669    0.9261 H   0  0
   -4.5545   -3.0751    0.0461 H   0  0
   -2.9779   -4.9364   -0.0016 H   0  0
   -0.5318    1.7807    0.9147 H   0  0
   -0.5488    1.7894   -0.8815 H   0  0
    4.3663    2.4434    1.0431 H   0  0
    3.0222    3.1196    2.0720 H   0  0
    4.8698    4.5129    2.7146 H   0  0
    5.5406    4.5450    1.0127 H   0  0
    4.3485    6.6331    1.1132 H   0  0
    3.0108    5.9109    2.1187 H   0  0
    1.9582    5.6907    0.0461 H   0  0
    3.5252    5.7106   -0.8609 H   0  0
   -1.0546   -6.7764   -0.0238 H   0  0
    1.0221   -8.1689   -0.9446 H   0  0
    0.0997   -9.0072    1.0455 H   0  0
    0.8311   -7.6690    2.0435 H   0  0
    2.2020   -9.5398    2.6646 H   0  0
    2.1752  -10.2243    0.9679 H   0  0
    4.2888   -9.0737    1.0037 H   0  0
    3.6201   -7.7137    2.0161 H   0  0
    3.3661   -6.6738   -0.0590 H   0  0
    3.3310   -8.2483   -0.9526 H   0  0
  1  2  1  0
  2  6  2  0
  2  3  1  0
  3  4  2  0
  4  5  1  0
  4 21  1  0
  5  6  1  0
  6  7  1  0
  7  8  2  0
  7  9  1  0
  9 10  1  0
 10 11  1  0
 11 12  2  0
 11 13  1  0
 13 14  1  0
 14 18  1  0
 14 15  1  0
 14 19  1  0
 15 16  1  0
 16 17  1  0
 17 18  1  0
 19 20  3  0
 21 22  1  0
 22 23  2  0
 22 24  1  0
 24 28  1  0
 24 25  1  0
 25 26  1  0
 26 27  1  0
 27 28  1  0
  1 29  1  0
  1 30  1  0
  1 31  1  0
  3 32  1  0
 10 33  1  0
 10 34  1  0
 15 35  1  0
 15 36  1  0
 16 37  1  0
 16 38  1  0
 17 39  1  0
 17 40  1  0
 18 41  1  0
 18 42  1  0
 21 43  1  0
 24 44  1  0
 25 45  1  0
 25 46  1  0
 26 47  1  0
 26 48  1  0
 27 49  1  0
 27 50  1  0
 28 51  1  0
 28 52  1  0
M  CHG  1  13  -1
M  END
> <Name>
ZINC31228051

> <reference>
BDB50048505

> <quality>
0.674

> <status>
decoy

$$$$
ZINC16511779
  SciTegic06061311253D

 49 51  0  0  0  0            999 V2000
   -4.7083   -3.0355    0.0311 C   0  0
   -3.5250   -2.2343    0.0241 O   0  0
   -2.3373   -2.8899    0.0089 C   0  0
   -2.3074   -4.2766    0.0012 C   0  0
   -1.0984   -4.9429   -0.0139 C   0  0
    0.0929   -4.2338   -0.0215 C   0  0
    0.0812   -2.8549   -0.0198 C   0  0
   -1.1358   -2.1690    0.0013 C   0  0
   -1.1558   -0.6938    0.0094 C   0  0
   -2.2169   -0.1002    0.0227 O   0  0
    0.0021   -0.0041    0.0020 N   0  0
   -0.0169    1.3968    0.0097 N   0  0
    1.1410    2.0865    0.0024 C   0  0
    2.1994    1.4944   -0.0109 O   0  0
    1.1205    3.5933    0.0107 C   0  0
    2.5559    4.1229   -0.0002 C   0  0
    2.5355    5.6297    0.0081 C   0  0
    1.4773    6.2216    0.0214 O   0  0
    3.7998    6.3828    0.0001 C   0  0
    5.0230    5.7047   -0.0153 C   0  0
    6.2006    6.4189   -0.0227 C   0  0
    6.1816    7.8059   -0.0150 C   0  0
    4.9749    8.4840    0.0002 C   0  0
    3.7861    7.7799    0.0019 C   0  0
    5.2273    9.9768    0.0063 C   0  0
    6.6931   10.1406   -0.4478 C   0  0
    7.3248    8.7990   -0.0202 C   0  0
    1.6056   -5.0853   -0.0399 Cl  0  0
   -4.6369   -3.6850    0.9160 H   0  0
   -4.6541   -3.6751   -0.8622 H   0  0
   -5.6292   -2.4340    0.0434 H   0  0
   -3.2484   -4.8463    0.0071 H   0  0
   -1.0802   -6.0427   -0.0199 H   0  0
    1.0285   -2.2959   -0.0350 H   0  0
    0.9010   -0.5069   -0.0093 H   0  0
   -0.9158    1.8996    0.0209 H   0  0
    0.5890    3.9578   -0.8807 H   0  0
    0.6060    3.9492    0.9155 H   0  0
    3.0717    3.7689   -0.9050 H   0  0
    3.0879    3.7590    0.8912 H   0  0
    5.0444    4.6049   -0.0215 H   0  0
    7.1627    5.8858   -0.0348 H   0  0
    2.8278    8.3199    0.0047 H   0  0
    4.5551   10.4758   -0.7072 H   0  0
    5.1024   10.3772    1.0232 H   0  0
    7.1694   10.9744    0.0887 H   0  0
    6.7440   10.2550   -1.5406 H   0  0
    8.0877    8.4934   -0.7513 H   0  0
    7.7504    8.8894    0.9901 H   0  0
  1  2  1  0
  2  3  1  0
  3  8  2  0
  3  4  1  0
  4  5  2  0
  5  6  1  0
  6  7  2  0
  6 28  1  0
  7  8  1  0
  8  9  1  0
  9 10  2  0
  9 11  1  0
 11 12  1  0
 12 13  1  0
 13 14  2  0
 13 15  1  0
 15 16  1  0
 16 17  1  0
 17 18  2  0
 17 19  1  0
 19 24  2  0
 19 20  1  0
 20 21  2  0
 21 22  1  0
 22 27  1  0
 22 23  2  0
 23 24  1  0
 23 25  1  0
 25 26  1  0
 26 27  1  0
  1 29  1  0
  1 30  1  0
  1 31  1  0
  4 32  1  0
  5 33  1  0
  7 34  1  0
 11 35  1  0
 12 36  1  0
 15 37  1  0
 15 38  1  0
 16 39  1  0
 16 40  1  0
 20 41  1  0
 21 42  1  0
 24 43  1  0
 25 44  1  0
 25 45  1  0
 26 46  1  0
 26 47  1  0
 27 48  1  0
 27 49  1  0
M  END
> <Name>
ZINC16511779

> <reference>
BDB50048505

> <quality>
0.674

> <status>
decoy

$$$$
ZINC29589583
  SciTegic06061311253D

 53 55  0  0  0  0            999 V2000
    9.1768   -4.8584   -2.1189 C   0  0
    8.9242   -5.3813   -0.7034 C   0  0  1  0  0  0
    8.6633   -4.2027    0.2367 C   0  0
    7.7241   -6.2928   -0.7113 C   0  0
    6.4560   -5.7414   -0.6040 C   0  0
    5.3438   -6.5810   -0.6050 C   0  0
    5.5671   -7.9709   -0.7287 C   0  0
    4.7196   -9.0980   -0.7726 C   0  0
    5.4549  -10.1658   -0.8980 N   0  0
    6.8071   -9.8064   -0.9429 N   0  0
    6.8908   -8.4421   -0.8385 C   0  0
    7.9055   -7.5897   -0.8252 N   0  0
    7.9373  -10.7287   -1.0778 C   0  0  1  0  0  0
    7.9408  -11.7066    0.0990 C   0  0
    7.8063  -11.5078   -2.3880 C   0  0
    3.9758   -6.0354   -0.4868 C   0  0
    3.0202   -6.7852   -0.4950 O   0  0
    3.7884   -4.7064   -0.3700 O   0  0
    2.4174   -4.2414   -0.2581 C   0  0
    2.4048   -2.7393   -0.1368 C   0  0
    3.4485   -2.1215   -0.1440 O   0  0
    1.2337   -2.0825   -0.0204 N   0  0
    1.2134   -0.6815   -0.0190 C   0  0
    2.1377    0.0273   -0.7746 C   0  0
    2.1168    1.4080   -0.7731 C   0  0
    1.1727    2.0869   -0.0168 C   0  0
    0.2489    1.3793    0.7385 C   0  0
    0.2686   -0.0014    0.7378 C   0  0
    1.1530    3.4464   -0.0153 O   0  0
   10.0528   -4.1931   -2.1143 H   0  0
    8.2953   -4.3004   -2.4675 H   0  0
    9.3645   -5.7053   -2.7953 H   0  0
    9.8062   -5.9393   -0.3558 H   0  0
    7.7813   -3.6441   -0.1099 H   0  0
    9.5389   -3.5369    0.2434 H   0  0
    8.4816   -4.5780    1.2546 H   0  0
    6.3294   -4.6520   -0.5189 H   0  0
    3.6215   -9.0783   -0.7112 H   0  0
    8.8777  -10.1580   -1.0831 H   0  0
    7.0009  -12.2780    0.1051 H   0  0
    8.0353  -11.1474    1.0415 H   0  0
    8.7892  -12.3995   -0.0017 H   0  0
    7.8039  -10.8056   -3.2347 H   0  0
    6.8663  -12.0791   -2.3836 H   0  0
    8.6547  -12.2005   -2.4899 H   0  0
    1.9504   -4.6845    0.6339 H   0  0
    1.8541   -4.5411   -1.1541 H   0  0
    0.3537   -2.6104    0.0675 H   0  0
    2.8865   -0.5109   -1.3743 H   0  0
    2.8490    1.9697   -1.3718 H   0  0
   -0.4995    1.9182    1.3381 H   0  0
   -0.4640   -0.5624    1.3366 H   0  0
    1.0609    3.7012   -0.9675 H   0  0
  1  2  1  0
  2  3  1  0
  2  4  1  0
  4 12  1  0
  4  5  2  0
  5  6  1  0
  6  7  2  0
  6 16  1  0
  7 11  1  0
  7  8  1  0
  8  9  2  0
  9 10  1  0
 10 11  1  0
 10 13  1  0
 11 12  2  0
 13 14  1  0
 13 15  1  0
 16 17  2  0
 16 18  1  0
 18 19  1  0
 19 20  1  0
 20 21  2  0
 20 22  1  0
 22 23  1  0
 23 28  2  0
 23 24  1  0
 24 25  2  0
 25 26  1  0
 26 27  2  0
 26 29  1  0
 27 28  1  0
  1 30  1  0
  1 31  1  0
  1 32  1  0
  2 33  1  0
  3 34  1  0
  3 35  1  0
  3 36  1  0
  5 37  1  0
  8 38  1  0
 13 39  1  0
 14 40  1  0
 14 41  1  0
 14 42  1  0
 15 43  1  0
 15 44  1  0
 15 45  1  0
 19 46  1  0
 19 47  1  0
 22 48  1  0
 24 49  1  0
 25 50  1  0
 27 51  1  0
 28 52  1  0
 29 53  1  0
M  END
> <Name>
ZINC29589583

> <reference>
BDB50048505

> <quality>
0.673

> <status>
decoy

$$$$
ZINC12126028
  SciTegic06061311253D

 55 58  0  0  0  0            999 V2000
    8.2390   -1.1046    0.0724 C   0  0
    7.4990   -2.4377   -0.0546 C   0  0
    6.0901   -2.2001   -0.0773 O   0  0
    5.2841   -3.2858   -0.1867 C   0  0
    5.8343   -4.5563   -0.2704 C   0  0
    5.0128   -5.6603   -0.3813 C   0  0
    3.6358   -5.5095   -0.4094 C   0  0
    3.0719   -4.2553   -0.3220 C   0  0
    3.8917   -3.1289   -0.2153 C   0  0
    3.2949   -1.7829   -0.1271 C   0  0
    4.0115   -0.8053   -0.0292 O   0  0
    1.9554   -1.6365   -0.1549 N   0  0
    1.3923   -0.3662   -0.0716 C   0  0
    2.0660    0.8154   -0.0763 C   0  0
    1.1259    1.8467    0.0236 C   0  0
   -0.0680    1.3167    0.0863 N   0  0
    0.0621   -0.0769    0.0289 N   0  0
   -0.9713   -0.9945    0.0676 C   0  0
   -2.2494   -0.5544    0.2085 N   0  0
   -3.2650   -1.4434    0.2425 C   0  0
   -4.4187   -1.0657    0.3639 O   0  0
   -2.9659   -2.8152    0.1405 C   0  0
   -1.6633   -3.1961    0.0059 C   0  0
   -0.6990   -2.2776   -0.0272 N   0  0
   -1.3143   -4.6580   -0.1050 C   0  0  1  0  0  0
   -0.6053   -4.9135   -1.4365 C   0  0
   -0.3895   -5.0504    1.0489 C   0  0
    1.4367    3.3210    0.0531 C   0  0  2  0  0  0
    2.8801    3.7328    0.3498 C   0  0
    1.7918    3.9412    1.4059 C   0  0
    7.9372   -0.6039    1.0042 H   0  0
    7.9899   -0.4626   -0.7854 H   0  0
    9.3237   -1.2868    0.0899 H   0  0
    7.8011   -2.9376   -0.9867 H   0  0
    7.7481   -3.0798    0.8032 H   0  0
    6.9266   -4.6844   -0.2484 H   0  0
    5.4541   -6.6657   -0.4478 H   0  0
    2.9898   -6.3950   -0.5019 H   0  0
    1.9779   -4.1410   -0.3362 H   0  0
    1.3484   -2.4645   -0.2378 H   0  0
    3.1569    0.9384   -0.1463 H   0  0
   -2.4426    0.4541    0.2891 H   0  0
   -3.7687   -3.5667    0.1689 H   0  0
   -2.2343   -5.2592   -0.0583 H   0  0
    0.3150   -4.3129   -1.4842 H   0  0
   -1.2696   -4.6319   -2.2668 H   0  0
   -0.3503   -5.9804   -1.5181 H   0  0
   -0.8985   -4.8673    2.0067 H   0  0
    0.5310   -4.4499    1.0029 H   0  0
   -0.1343   -6.1174    0.9686 H   0  0
    0.7100    3.5488   -0.7406 H   0  0
    3.1415    4.6770   -0.1503 H   0  0
    3.5078    2.8607    0.5853 H   0  0
    1.8479    3.1792    2.1972 H   0  0
    1.4804    4.9948    1.4605 H   0  0
  1  2  1  0
  2  3  1  0
  3  4  1  0
  4  9  2  0
  4  5  1  0
  5  6  2  0
  6  7  1  0
  7  8  2  0
  8  9  1  0
  9 10  1  0
 10 11  2  0
 10 12  1  0
 12 13  1  0
 13 17  1  0
 13 14  2  0
 14 15  1  0
 15 16  2  0
 15 28  1  0
 16 17  1  0
 17 18  1  0
 18 24  2  0
 18 19  1  0
 19 20  1  0
 20 21  2  0
 20 22  1  0
 22 23  2  0
 23 24  1  0
 23 25  1  0
 25 26  1  0
 25 27  1  0
 28 30  1  0
 28 29  1  0
 29 30  1  0
  1 31  1  0
  1 32  1  0
  1 33  1  0
  2 34  1  0
  2 35  1  0
  5 36  1  0
  6 37  1  0
  7 38  1  0
  8 39  1  0
 12 40  1  0
 14 41  1  0
 19 42  1  0
 22 43  1  0
 25 44  1  0
 26 45  1  0
 26 46  1  0
 26 47  1  0
 27 48  1  0
 27 49  1  0
 27 50  1  0
 28 51  1  0
 29 52  1  0
 29 53  1  0
 30 54  1  0
 30 55  1  0
M  END
> <Name>
ZINC12126028

> <reference>
BDB50048505

> <quality>
0.673

> <status>
decoy

$$$$
ZINC26078405
  SciTegic06061311253D

 50 52  0  0  0  0            999 V2000
    1.7250   -1.2388    3.7252 C   0  0
    1.3723   -0.4248    2.4786 C   0  0
    1.7555   -1.2170    1.2270 C   0  0
    1.4028   -0.4030   -0.0196 C   0  0  2  0  0  0
    2.1484    0.9168   -0.0233 C   0  0
    3.3497    1.0791   -0.0437 O   0  0
    1.1982    1.8721    0.0001 N   0  0
   -0.0313    1.3449    0.0179 C   0  0
   -1.0503    2.0072    0.0357 O   0  0
   -0.0139   -0.0002    0.0080 N   0  5
    1.4771    3.3103    0.0045 C   0  0
    1.5977    3.7943    1.4265 C   0  0
    1.4638    3.0147    2.3459 O   0  0
    1.8542    5.0936    1.6767 N   0  0
    1.8519    5.5651    2.9905 C   0  0
    1.1241    4.9122    3.9629 C   0  0
    1.1214    5.3727    5.2756 C   0  0
    1.8247    6.4833    5.6345 C   0  0
    2.5755    7.1820    4.6727 C   0  0
    2.5891    6.7168    3.3346 C   0  0
    3.3406    7.4177    2.3757 C   0  0
    4.0304    8.5259    2.7807 C   0  0
    3.9750    8.9305    4.1121 C   0  0
    3.2725    8.2743    5.0036 N   0  0
    1.7933    7.0360    7.2799 Cl  0  0
    1.7115   -1.1991   -1.2892 C   0  0
    1.4012   -0.3410   -2.5173 C   0  0
    1.7098   -1.1372   -3.7869 C   0  0
    2.8059   -1.4425    3.7377 H   0  0
    1.1733   -2.1904    3.7113 H   0  0
    1.4498   -0.6698    4.6255 H   0  0
    0.2912   -0.2219    2.4667 H   0  0
    1.9239    0.5268    2.4925 H   0  0
    2.8366   -1.4199    1.2380 H   0  0
    1.2039   -2.1686    1.2108 H   0  0
    0.6567    3.8456   -0.4959 H   0  0
    2.4196    3.5028   -0.5289 H   0  0
    2.0519    5.7386    0.8984 H   0  0
    0.5400    4.0185    3.6980 H   0  0
    0.5414    4.8308    6.0372 H   0  0
    3.3727    7.0835    1.3282 H   0  0
    4.6286    9.0976    2.0559 H   0  0
    4.5354    9.8242    4.4240 H   0  0
    2.7753   -1.4787   -1.2972 H   0  0
    1.0931   -2.1085   -1.3125 H   0  0
    2.0197    0.5684   -2.4963 H   0  0
    0.3374   -0.0613   -2.5101 H   0  0
    1.0913   -2.0465   -3.8101 H   0  0
    2.7734   -1.4176   -3.7957 H   0  0
    1.4869   -0.5208   -4.6703 H   0  0
  1  2  1  0
  2  3  1  0
  3  4  1  0
  4 10  1  0
  4  5  1  0
  4 26  1  0
  5  6  2  0
  5  7  1  0
  7  8  1  0
  7 11  1  0
  8  9  2  0
  8 10  1  0
 11 12  1  0
 12 13  2  0
 12 14  1  0
 14 15  1  0
 15 20  2  0
 15 16  1  0
 16 17  2  0
 17 18  1  0
 18 19  2  0
 18 25  1  0
 19 24  1  0
 19 20  1  0
 20 21  1  0
 21 22  2  0
 22 23  1  0
 23 24  2  0
 26 27  1  0
 27 28  1  0
  1 29  1  0
  1 30  1  0
  1 31  1  0
  2 32  1  0
  2 33  1  0
  3 34  1  0
  3 35  1  0
 11 36  1  0
 11 37  1  0
 14 38  1  0
 16 39  1  0
 17 40  1  0
 21 41  1  0
 22 42  1  0
 23 43  1  0
 26 44  1  0
 26 45  1  0
 27 46  1  0
 27 47  1  0
 28 48  1  0
 28 49  1  0
 28 50  1  0
M  CHG  1  10  -1
M  END
> <Name>
ZINC26078405

> <reference>
BDB50048505

> <quality>
0.667

> <status>
decoy

$$$$
ZINC21047151
  SciTegic06061311253D

 68 70  0  0  1  0            999 V2000
   -5.3389  -12.0676    0.3894 C   0  0
   -5.2664  -10.9972    1.3334 O   0  0
   -5.0226   -9.7183    0.7443 C   0  0
   -4.9651   -8.6539    1.8419 C   0  0
   -4.7039   -7.2846    1.2112 C   0  0
   -4.6489   -6.2655    2.2621 N   0  0
   -4.4278   -4.9758    1.9392 C   0  0
   -4.2744   -4.6589    0.7786 O   0  0
   -4.3711   -3.9274    3.0203 C   0  0
   -4.1204   -2.6127    2.4147 N   0  0
   -4.2928   -1.5374    3.4007 C   0  0
   -4.2020   -0.1810    2.6935 C   0  0
   -2.9430   -0.1331    1.9347 N   0  0
   -2.6381   -1.2449    1.0214 C   0  0
   -2.7877   -2.5622    1.7988 C   0  0
   -2.0796    0.9221    2.0709 C   0  0
   -2.2278    1.9942    1.3228 N   0  0
   -3.1661    2.0108    0.3334 C   0  0
   -3.0977    1.0817   -0.7117 C   0  0
   -4.0395    1.0946   -1.6984 C   0  0
   -5.0676    2.0447   -1.6725 C   0  0
   -5.1326    2.9775   -0.6304 C   0  0
   -4.1943    2.9606    0.3596 C   0  0
   -6.0804    2.0626   -2.7407 C   0  0
   -6.9731    2.8872   -2.7180 O   0  0
   -6.0178    1.1646   -3.7440 O   0  5
   -1.0618    0.8607    2.9862 N   0  3
   -0.8205   -0.3773    3.7315 C   0  0
    0.4266   -1.0704    3.1789 C   0  0  1  0  0  0
    0.7663   -2.3024    4.0401 C   0  0
    0.7286   -3.4851    3.0419 C   0  0
    0.9151   -2.7674    1.6809 C   0  0
    0.1742   -1.5389    1.8436 O   0  0
   -4.3861  -12.0904   -0.1599 H   0  0
   -6.1444  -11.8294   -0.3209 H   0  0
   -5.5274  -13.0314    0.8849 H   0  0
   -4.0644   -9.7397    0.2045 H   0  0
   -5.8338   -9.4762    0.0420 H   0  0
   -5.9232   -8.6316    2.3818 H   0  0
   -4.1537   -8.8938    2.5447 H   0  0
   -3.7456   -7.3061    0.6715 H   0  0
   -5.5150   -7.0425    0.5088 H   0  0
   -4.7792   -6.5346    3.2478 H   0  0
   -5.3292   -3.9051    3.5603 H   0  0
   -3.5596   -4.1673    3.7231 H   0  0
   -5.2773   -1.6347    3.8817 H   0  0
   -3.5027   -1.6066    4.1629 H   0  0
   -4.2133    0.6269    3.4400 H   0  0
   -5.0521   -0.0663    2.0049 H   0  0
   -1.6061   -1.1497    0.6526 H   0  0
   -3.3422   -1.2333    0.1764 H   0  0
   -2.6684   -3.4105    1.1087 H   0  0
   -2.0183   -2.6144    2.5832 H   0  0
   -1.6351    2.8209    1.4844 H   0  0
   -2.2845    0.3414   -0.7371 H   0  0
   -3.9912    0.3586   -2.5144 H   0  0
   -5.9403    3.7240   -0.6100 H   0  0
   -4.2455    3.6932    1.1785 H   0  0
   -0.4663    1.6850    3.1503 H   0  0
   -0.6673   -0.1413    4.7949 H   0  0
   -1.6878   -1.0455    3.6254 H   0  0
    1.2552   -0.3470    3.1885 H   0  0
    0.0036   -2.4423    4.8203 H   0  0
    1.7751   -2.1999    4.4665 H   0  0
    1.5675   -4.1714    3.2299 H   0  0
   -0.2498   -3.9866    3.0781 H   0  0
    0.4799   -3.3712    0.8709 H   0  0
    1.9800   -2.5513    1.5099 H   0  0
  1  2  1  0
  2  3  1  0
  3  4  1  0
  4  5  1  0
  5  6  1  0
  6  7  1  0
  7  8  2  0
  7  9  1  0
  9 10  1  0
 10 15  1  0
 10 11  1  0
 11 12  1  0
 12 13  1  0
 13 14  1  0
 13 16  1  0
 14 15  1  0
 16 17  1  0
 16 27  2  0
 17 18  1  0
 18 23  2  0
 18 19  1  0
 19 20  2  0
 20 21  1  0
 21 22  2  0
 21 24  1  0
 22 23  1  0
 24 25  2  0
 24 26  1  0
 27 28  1  0
 28 29  1  0
 29 33  1  0
 29 30  1  0
 30 31  1  0
 31 32  1  0
 32 33  1  0
  1 34  1  0
  1 35  1  0
  1 36  1  0
  3 37  1  0
  3 38  1  0
  4 39  1  0
  4 40  1  0
  5 41  1  0
  5 42  1  0
  6 43  1  0
  9 44  1  0
  9 45  1  0
 11 46  1  0
 11 47  1  0
 12 48  1  0
 12 49  1  0
 14 50  1  0
 14 51  1  0
 15 52  1  0
 15 53  1  0
 17 54  1  0
 19 55  1  0
 20 56  1  0
 22 57  1  0
 23 58  1  0
 27 59  1  0
 28 60  1  0
 28 61  1  0
 29 62  1  0
 30 63  1  0
 30 64  1  0
 31 65  1  0
 31 66  1  0
 32 67  1  0
 32 68  1  0
M  CHG  2  26  -1  27   1
M  END
> <Name>
ZINC21047151

> <reference>
BDB50021151

> <quality>
0.878

> <status>
decoy

$$$$
ZINC27559438
  SciTegic06061311253D

 61 63  0  0  0  0            999 V2000
   -5.8327    8.7606   -0.9045 C   0  0
   -4.9528    7.8463   -0.0916 C   0  0
   -4.3568    6.7345   -0.6899 C   0  0
   -4.4479    6.2645   -2.0912 C   0  0
   -5.1145    6.8703   -2.9114 O   0  0
   -3.7703    5.1524   -2.4367 N   0  0
   -3.0295    4.4674   -1.5312 C   0  0
   -2.9275    4.8544   -0.2887 N   0  0
   -3.5498    5.9387    0.1555 C   0  0
   -3.6592    6.7671    1.7216 S   0  0
   -4.7365    8.1031    1.2316 C   0  0
   -5.2587    9.2020    2.0466 C   0  0
   -5.9889   10.0364    1.5465 O   0  0
   -4.9299    9.2889    3.3521 O   0  0
   -5.4840   10.4042    4.0986 C   0  0
   -5.0036   10.3357    5.5496 C   0  0
   -3.5871   10.5192    5.5915 O   0  0
   -3.0336   10.4726    6.9081 C   0  0
   -2.2975    3.2266   -1.9734 C   0  0
   -1.4469    2.7432   -0.8776 N   0  0
   -0.3702    3.6997   -0.5854 C   0  0
    0.4429    3.1987    0.6106 C   0  0
    0.9914    1.8700    0.3052 N   0  0
   -0.0853    0.9136    0.0125 C   0  0
   -0.8985    1.4145   -1.1834 C   0  0
    1.8417    1.3868    1.4013 C   0  0
    3.0702    2.2535    1.5035 C   0  0
    3.2294    3.1735    0.7295 O   0  0
    3.9921    2.0063    2.4552 N   0  0
    5.1864    2.8489    2.5545 C   0  0
    6.0493    2.3651    3.6913 C   0  0
    7.3044    2.0577    3.4761 C   0  0
   -5.3850    9.7595   -0.7957 H   0  0
   -6.7963    8.7761   -0.3741 H   0  0
   -5.9362    8.4580   -1.9570 H   0  0
   -3.8161    4.8156   -3.4090 H   0  0
   -6.5826   10.3536    4.0741 H   0  0
   -5.1503   11.3500    3.6467 H   0  0
   -5.4929   11.1276    6.1357 H   0  0
   -5.2582    9.3539    5.9753 H   0  0
   -3.2916    9.4952    7.3418 H   0  0
   -3.5247   11.2574    7.5022 H   0  0
   -1.9434   10.6181    6.8936 H   0  0
   -1.6712    3.4607   -2.8469 H   0  0
   -3.0258    2.4474   -2.2426 H   0  0
   -0.8048    4.6817   -0.3471 H   0  0
    0.2871    3.7917   -1.4626 H   0  0
    1.2677    3.8980    0.8125 H   0  0
   -0.2071    3.1320    1.4955 H   0  0
    0.3504   -0.0679   -0.2260 H   0  0
   -0.7431    0.8203    0.8892 H   0  0
   -1.7228    0.7146   -1.3849 H   0  0
   -0.2473    1.4796   -2.0675 H   0  0
    1.2819    1.4321    2.3471 H   0  0
    2.1426    0.3476    1.2027 H   0  0
    3.8569    1.2250    3.1126 H   0  0
    4.8869    3.8909    2.7402 H   0  0
    5.7543    2.7926    1.6141 H   0  0
    5.6252    2.2701    4.7018 H   0  0
    7.7285    2.1527    2.4656 H   0  0
    7.9343    1.7046    4.3059 H   0  0
  1  2  1  0
  2 11  2  0
  2  3  1  0
  3  9  2  0
  3  4  1  0
  4  5  2  0
  4  6  1  0
  6  7  1  0
  7  8  2  0
  7 19  1  0
  8  9  1  0
  9 10  1  0
 10 11  1  0
 11 12  1  0
 12 13  2  0
 12 14  1  0
 14 15  1  0
 15 16  1  0
 16 17  1  0
 17 18  1  0
 19 20  1  0
 20 25  1  0
 20 21  1  0
 21 22  1  0
 22 23  1  0
 23 24  1  0
 23 26  1  0
 24 25  1  0
 26 27  1  0
 27 28  2  0
 27 29  1  0
 29 30  1  0
 30 31  1  0
 31 32  2  0
  1 33  1  0
  1 34  1  0
  1 35  1  0
  6 36  1  0
 15 37  1  0
 15 38  1  0
 16 39  1  0
 16 40  1  0
 18 41  1  0
 18 42  1  0
 18 43  1  0
 19 44  1  0
 19 45  1  0
 21 46  1  0
 21 47  1  0
 22 48  1  0
 22 49  1  0
 24 50  1  0
 24 51  1  0
 25 52  1  0
 25 53  1  0
 26 54  1  0
 26 55  1  0
 29 56  1  0
 30 57  1  0
 30 58  1  0
 31 59  1  0
 32 60  1  0
 32 61  1  0
M  END
> <Name>
ZINC27559438

> <reference>
BDB50021151

> <quality>
0.824

> <status>
decoy

$$$$
ZINC08811139
  SciTegic06061311253D

 69 70  0  0  1  0            999 V2000
   -6.3815   -9.4367   -0.0917 C   0  0
   -6.6836   -7.9370   -0.1130 C   0  0
   -5.3703   -7.1520   -0.1028 C   0  0
   -5.6724   -5.6523   -0.1240 C   0  0
   -3.7594   -4.9827    1.2006 C   0  0
   -4.6557   -4.3341    2.2574 C   0  0
   -4.6310   -3.4995   -0.5033 C   0  0
   -3.2812   -2.8134   -0.7224 C   0  0
   -3.5098   -1.3562   -1.1288 C   0  0
   -2.2173   -0.6992   -1.3387 N   0  0
   -2.1719    0.5971   -1.7050 C   0  0
   -3.2040    1.2214   -1.8613 O   0  0
   -0.8738    1.2569   -1.9157 C   0  0
    0.3037    0.5597   -1.7416 C   0  0
    1.5031    1.1258   -1.9298 N   0  0
    1.6564    2.4429   -2.3048 C   0  0
    2.9271    2.9832   -2.4873 C   0  0
    3.0671    4.3014   -2.8615 C   0  0
    1.9526    5.1042   -3.0605 C   0  0
    0.6866    4.5909   -2.8862 C   0  0
    0.5297    3.2576   -2.5074 C   0  0
   -0.8098    2.6730   -2.3107 C   0  0
   -1.8210    3.3336   -2.4721 O   0  0
    2.1584    6.7875   -3.5389 S   0  0
    3.4298    6.8787   -4.1670 O   0  0
    0.9568    7.1740   -4.1916 O   0  0
    2.2516    7.6835   -2.1494 N   0  0
    3.5525    7.9294   -1.5222 C   0  0
    4.0998    9.2778   -1.9948 C   0  0
    1.0331    8.2303   -1.5473 C   0  0
    0.5268    7.2757   -0.4641 C   0  0
   -4.3939   -4.9105   -0.1324 N   0  3
   -5.8141   -9.6846    0.8174 H   0  0
   -5.7880   -9.7049   -0.9782 H   0  0
   -7.3253  -10.0017   -0.0990 H   0  0
   -7.2508   -7.6900   -1.0226 H   0  0
   -7.2771   -7.6688    0.7734 H   0  0
   -4.8028   -7.3983    0.8067 H   0  0
   -4.7759   -7.4181   -0.9893 H   0  0
   -6.2474   -5.4050   -1.0285 H   0  0
   -6.2503   -5.3791    0.7712 H   0  0
   -2.7926   -4.4587    1.1716 H   0  0
   -3.5877   -6.0367    1.4643 H   0  0
   -5.6212   -4.8606    2.2818 H   0  0
   -4.8245   -3.2810    1.9881 H   0  0
   -4.1749   -4.3930    3.2450 H   0  0
   -5.1746   -2.9924    0.3074 H   0  0
   -5.2215   -3.4573   -1.4304 H   0  0
   -2.6974   -2.8464    0.2093 H   0  0
   -2.7294   -3.3333   -1.5194 H   0  0
   -4.0933   -1.3225   -2.0607 H   0  0
   -4.0605   -0.8343   -0.3323 H   0  0
   -1.3433   -1.2279   -1.2064 H   0  0
    0.2562   -0.4965   -1.4381 H   0  0
    2.3467    0.5521   -1.7882 H   0  0
    3.8185    2.3575   -2.3327 H   0  0
    4.0733    4.7224   -3.0042 H   0  0
   -0.1956    5.2285   -3.0447 H   0  0
    3.4354    7.9448   -0.4286 H   0  0
    4.2539    7.1305   -1.8047 H   0  0
    3.4001   10.0781   -1.7121 H   0  0
    4.2176    9.2639   -3.0884 H   0  0
    5.0766    9.4631   -1.5242 H   0  0
    1.2536    9.2099   -1.0981 H   0  0
    0.2608    8.3475   -2.3218 H   0  0
    1.2975    7.1582    0.3119 H   0  0
    0.3057    6.2956   -0.9118 H   0  0
   -0.3881    7.6857   -0.0116 H   0  0
   -3.7639   -5.3374   -0.8264 H   0  0
  1  2  1  0
  2  3  1  0
  3  4  1  0
  4 32  1  0
  5  6  1  0
  5 32  1  0
  7  8  1  0
  7 32  1  0
  8  9  1  0
  9 10  1  0
 10 11  1  0
 11 12  2  0
 11 13  1  0
 13 22  1  0
 13 14  2  0
 14 15  1  0
 15 16  1  0
 16 21  2  0
 16 17  1  0
 17 18  2  0
 18 19  1  0
 19 20  2  0
 19 24  1  0
 20 21  1  0
 21 22  1  0
 22 23  2  0
 24 25  2  0
 24 26  2  0
 24 27  1  0
 27 28  1  0
 27 30  1  0
 28 29  1  0
 30 31  1  0
  1 33  1  0
  1 34  1  0
  1 35  1  0
  2 36  1  0
  2 37  1  0
  3 38  1  0
  3 39  1  0
  4 40  1  0
  4 41  1  0
  5 42  1  0
  5 43  1  0
  6 44  1  0
  6 45  1  0
  6 46  1  0
  7 47  1  0
  7 48  1  0
  8 49  1  0
  8 50  1  0
  9 51  1  0
  9 52  1  0
 10 53  1  0
 14 54  1  0
 15 55  1  0
 17 56  1  0
 18 57  1  0
 20 58  1  0
 28 59  1  0
 28 60  1  0
 29 61  1  0
 29 62  1  0
 29 63  1  0
 30 64  1  0
 30 65  1  0
 31 66  1  0
 31 67  1  0
 31 68  1  0
 32 69  1  0
M  CHG  1  32   1
M  END
> <Name>
ZINC08811139

> <reference>
BDB50021151

> <quality>
0.821

> <status>
decoy

$$$$
ZINC31439924
  SciTegic06061311253D

 49 50  0  0  1  0            999 V2000
   -3.7143    6.9737    2.0372 C   0  0
   -2.5665    7.8003    2.5572 C   0  0
   -1.3319    7.2571    2.7104 C   0  0
   -0.4300    8.6648    3.3418 S   0  0
   -1.7453    9.7987    3.3273 C   0  0
   -2.7365    9.0669    2.8736 N   0  3
   -4.0608    9.6733    2.7155 C   0  0
   -4.8885    9.3998    3.9447 C   0  0
   -5.7592    8.3285    3.9880 C   0  0
   -6.4684    8.1156    5.0873 N   0  0
   -6.3608    8.9143    6.1301 C   0  0
   -5.5470    9.9504    6.1307 N   0  0
   -4.7988   10.2265    5.0663 C   0  0
   -3.9445   11.3171    5.0703 N   0  0
   -7.1920    8.6350    7.3557 C   0  0
   -0.8557    5.8547    2.4318 C   0  0
   -0.3589    5.7624    0.9876 C   0  0
    0.0927    4.4326    0.7234 O   0  0
    0.5801    4.2376   -0.6057 C   0  0
    1.0340    2.7863   -0.7747 C   0  0
   -0.0941    1.9174   -0.6545 O   0  0
    0.0154    0.3159   -0.7791 P   0  0
    1.0157   -0.1869    0.1888 O   0  0
    0.4696   -0.0763   -2.2730 O   0  5
   -1.4177   -0.3462   -0.4626 O   0  0
   -1.8966   -1.8194   -0.0240 P   0  0
   -1.0130   -2.3262    1.0496 O   0  0
   -3.4122   -1.7526    0.5152 O   0  5
   -1.8213   -2.8080   -1.2925 O   0  5
   -4.0790    7.5201    1.1549 H   0  0
   -4.4916    7.0509    2.8117 H   0  0
   -3.4465    5.9315    1.8087 H   0  0
   -1.7474   10.8583    3.6225 H   0  0
   -4.5599    9.2424    1.8350 H   0  0
   -3.9531   10.7597    2.5809 H   0  0
   -5.8628    7.6600    3.1206 H   0  0
   -3.3718   11.5180    4.2381 H   0  0
   -3.8816   11.9243    5.8999 H   0  0
   -6.9373    7.6084    7.6579 H   0  0
   -8.2362    8.6297    7.0097 H   0  0
   -7.0271    9.3595    8.1668 H   0  0
   -0.0340    5.6031    3.1184 H   0  0
   -1.6859    5.1483    2.5790 H   0  0
   -1.1803    6.0135    0.3004 H   0  0
    0.4722    6.4675    0.8388 H   0  0
    1.4309    4.9106   -0.7879 H   0  0
   -0.2216    4.4567   -1.3263 H   0  0
    1.4909    2.6581   -1.7671 H   0  0
    1.7712    2.5386    0.0032 H   0  0
  1  2  1  0
  2  6  1  0
  2  3  2  0
  3  4  1  0
  3 16  1  0
  4  5  1  0
  5  6  2  0
  6  7  1  0
  7  8  1  0
  8 13  2  0
  8  9  1  0
  9 10  2  0
 10 11  1  0
 11 12  2  0
 11 15  1  0
 12 13  1  0
 13 14  1  0
 16 17  1  0
 17 18  1  0
 18 19  1  0
 19 20  1  0
 20 21  1  0
 21 22  1  0
 22 23  2  0
 22 24  1  0
 22 25  1  0
 25 26  1  0
 26 27  2  0
 26 28  1  0
 26 29  1  0
  1 30  1  0
  1 31  1  0
  1 32  1  0
  5 33  1  0
  7 34  1  0
  7 35  1  0
  9 36  1  0
 14 37  1  0
 14 38  1  0
 15 39  1  0
 15 40  1  0
 15 41  1  0
 16 42  1  0
 16 43  1  0
 17 44  1  0
 17 45  1  0
 19 46  1  0
 19 47  1  0
 20 48  1  0
 20 49  1  0
M  CHG  4   6   1  24  -1  28  -1  29  -1
M  END
> <Name>
ZINC31439924

> <reference>
BDB50021151

> <quality>
0.818

> <status>
decoy

$$$$
ZINC19833517
  SciTegic06061311253D

 66 68  0  0  1  0            999 V2000
    3.2738    1.0392    2.2352 C   0  0
    3.5898    2.1104    1.1895 C   0  0
    3.7109    1.4829   -0.1332 N   0  3
    4.8312    0.5333   -0.1649 C   0  0
    6.1532    1.3034   -0.1439 C   0  0
    2.4547    0.8282   -0.5223 C   0  0
    1.3677    1.8867   -0.7197 C   0  0
    0.1150    1.2337   -1.1076 N   0  0
   -1.0095    1.9897   -1.3468 C   0  0
   -1.0803    3.3017   -1.2478 N   0  0
   -2.3119    3.7156   -1.5503 C   0  0
   -3.0705    2.5897   -1.8519 C   0  0
   -2.2221    1.4989   -1.7164 N   0  0
   -2.5672    0.0912   -1.9300 C   0  0
   -3.0617   -0.5176   -0.6164 C   0  0  2  0  0  0
   -3.3036   -2.0162   -0.8080 C   0  0
   -3.6530   -2.6064    0.4456 O   0  0
   -3.9024   -3.9432    0.4505 C   0  0
   -3.8177   -4.6687   -0.7286 C   0  0
   -4.0667   -6.0274   -0.7229 C   0  0
   -4.4109   -6.6643    0.4601 C   0  0
   -4.5003   -5.9379    1.6383 C   0  0
   -4.2470   -4.5801    1.6334 C   0  0
   -4.6602   -8.0011    0.4650 O   0  0
   -4.5496   -8.6862   -0.7842 C   0  0
   -4.2820    0.1159   -0.2273 O   0  0
   -4.4228    2.7470   -2.2035 C   0  0
   -5.1064    1.7745   -2.4720 O   0  0
   -4.9554    3.9859   -2.2409 N   0  0
   -4.2134    5.0676   -1.9473 C   0  0
   -4.7272    6.1689   -1.9910 O   0  0
   -2.9152    4.9617   -1.6063 N   0  0
   -2.1401    6.1649   -1.2937 C   0  0
    4.0838    0.2953    2.2559 H   0  0
    2.3268    0.5422    1.9779 H   0  0
    3.1830    1.5084    3.2259 H   0  0
    2.7792    2.8537    1.1693 H   0  0
    4.5368    2.6075    1.4468 H   0  0
    3.9063    2.2259   -0.8192 H   0  0
    4.7747   -0.0717   -1.0818 H   0  0
    4.7778   -0.1265    0.7137 H   0  0
    6.2119    1.9082    0.7730 H   0  0
    6.2081    1.9636   -1.0220 H   0  0
    6.9926    0.5929   -0.1676 H   0  0
    2.6042    0.2771   -1.4625 H   0  0
    2.1447    0.1283    0.2676 H   0  0
    1.2175    2.4379    0.2203 H   0  0
    1.6754    2.5869   -1.5103 H   0  0
    0.0760    0.2087   -1.2013 H   0  0
   -3.3606    0.0190   -2.6885 H   0  0
   -1.6784   -0.4570   -2.2757 H   0  0
   -2.3039   -0.3656    0.1663 H   0  0
   -4.1242   -2.1666   -1.5249 H   0  0
   -2.3887   -2.4901   -1.1932 H   0  0
   -3.5522   -4.1621   -1.6682 H   0  0
   -3.9920   -6.6042   -1.6566 H   0  0
   -4.7729   -6.4431    2.5766 H   0  0
   -4.3186   -4.0039    2.5677 H   0  0
   -3.5269   -8.5053   -1.1466 H   0  0
   -5.2454   -8.1860   -1.4739 H   0  0
   -4.7654   -9.7616   -0.7003 H   0  0
   -4.9647   -0.0206   -0.9311 H   0  0
   -5.0327    1.1902   -1.6762 H   0  0
   -1.2846    6.1406   -1.9847 H   0  0
   -1.7446    5.9944   -0.2815 H   0  0
   -2.7146    7.0999   -1.3686 H   0  0
  1  2  1  0
  2  3  1  0
  3  4  1  0
  3  6  1  0
  4  5  1  0
  6  7  1  0
  7  8  1  0
  8  9  1  0
  9 13  1  0
  9 10  2  0
 10 11  1  0
 11 32  1  0
 11 12  2  0
 12 13  1  0
 12 27  1  0
 13 14  1  0
 14 15  1  0
 15 16  1  0
 15 26  1  0
 16 17  1  0
 17 18  1  0
 18 23  2  0
 18 19  1  0
 19 20  2  0
 20 21  1  0
 21 22  2  0
 21 24  1  0
 22 23  1  0
 24 25  1  0
 27 28  1  0
 27 29  2  0
 29 30  1  0
 30 31  2  0
 30 32  1  0
 32 33  1  0
  1 34  1  0
  1 35  1  0
  1 36  1  0
  2 37  1  0
  2 38  1  0
  3 39  1  0
  4 40  1  0
  4 41  1  0
  5 42  1  0
  5 43  1  0
  5 44  1  0
  6 45  1  0
  6 46  1  0
  7 47  1  0
  7 48  1  0
  8 49  1  0
 14 50  1  0
 14 51  1  0
 15 52  1  0
 16 53  1  0
 16 54  1  0
 19 55  1  0
 20 56  1  0
 22 57  1  0
 23 58  1  0
 25 59  1  0
 25 60  1  0
 25 61  1  0
 26 62  1  0
 28 63  1  0
 33 64  1  0
 33 65  1  0
 33 66  1  0
M  CHG  1   3   1
M  END
> <Name>
ZINC19833517

> <reference>
BDB50021151

> <quality>
0.817

> <status>
decoy

$$$$
ZINC30344266
  SciTegic06061311253D

 62 63  0  0  0  0            999 V2000
    2.2567    4.1200    3.2199 C   0  0
    1.2754    3.3414    2.5322 O   0  0
    0.2007    4.0065    2.0299 C   0  0
    0.0984    5.3753    2.1916 C   0  0
   -1.0093    6.0572    1.6804 C   0  0
   -2.0079    5.3533    1.0019 C   0  0
   -1.8978    3.9854    0.8381 C   0  0
   -0.7930    3.3085    1.3484 C   0  0
   -0.6872    1.9636    1.1860 O   0  0
   -0.0184    1.5028    0.0103 C   0  0
    0.0021   -0.0041    0.0020 C   0  0
   -0.5061   -0.6224    0.9132 O   0  0
    0.5851   -0.6645   -1.0180 N   0  0
   -2.8690    3.2998    0.1775 O   0  0
   -3.9740    4.0573   -0.3196 C   0  0
   -1.1243    7.5169    1.8571 C   0  0
   -2.0880    8.1085    1.4126 O   0  0
   -0.1607    8.1943    2.5115 O   0  0
   -0.3400    9.6288    2.6479 C   0  0
    0.8276   10.2116    3.4015 C   0  0
    1.7225    9.4894    3.7857 O   0  0
    0.8772   11.5356    3.6484 N   0  0
    1.9215   12.0568    4.3224 C   0  0
    2.8185   11.3329    4.7075 O   0  0
    1.9710   13.3808    4.5693 N   0  0
    3.1061   13.9474    5.3019 C   0  0
    2.9172   15.4589    5.4456 C   0  0
    4.0848   16.0417    6.1992 C   0  0
    5.0677   16.5297    5.5127 C   0  0
    6.2998   17.1335    6.1204 C   0  0
    6.0495   17.4739    7.5912 C   0  0
    5.4350   16.2462    8.2755 C   0  0
    4.0331   16.0256    7.6989 C   0  0
    1.7279    4.6324    4.0371 H   0  0
    2.5991    4.8851    2.5077 H   0  0
    3.0936    3.5135    3.5964 H   0  0
    0.8881    5.9275    2.7221 H   0  0
   -2.8808    5.8875    0.5986 H   0  0
    1.0138    1.8828    0.0015 H   0  0
   -0.5507    1.8666   -0.8809 H   0  0
    1.0166   -0.1393   -1.7919 H   0  0
    0.5991   -1.6944   -1.0237 H   0  0
   -3.5493    4.8238   -0.9846 H   0  0
   -4.4132    4.5699    0.5489 H   0  0
   -4.7164    3.4350   -0.8408 H   0  0
   -1.2698    9.8325    3.1993 H   0  0
   -0.3975   10.0878    1.6499 H   0  0
    0.1170   12.1492    3.3220 H   0  0
    1.2108   13.9943    4.2429 H   0  0
    3.1640   13.4891    6.3002 H   0  0
    4.0368   13.7457    4.7513 H   0  0
    2.8597   15.9179    4.4476 H   0  0
    1.9874   15.6626    5.9970 H   0  0
    4.9953   16.5000    4.4155 H   0  0
    6.5655   18.0507    5.5743 H   0  0
    7.1311   16.4167    6.0485 H   0  0
    7.0020   17.7293    8.0785 H   0  0
    5.3528   18.3222    7.6616 H   0  0
    5.3646   16.4223    9.3590 H   0  0
    6.0587   15.3619    8.0777 H   0  0
    3.6467   15.0544    8.0416 H   0  0
    3.3644   16.8254    8.0499 H   0  0
  1  2  1  0
  2  3  1  0
  3  8  2  0
  3  4  1  0
  4  5  2  0
  5  6  1  0
  5 16  1  0
  6  7  2  0
  7  8  1  0
  7 14  1  0
  8  9  1  0
  9 10  1  0
 10 11  1  0
 11 12  2  0
 11 13  1  0
 14 15  1  0
 16 17  2  0
 16 18  1  0
 18 19  1  0
 19 20  1  0
 20 21  2  0
 20 22  1  0
 22 23  1  0
 23 24  2  0
 23 25  1  0
 25 26  1  0
 26 27  1  0
 27 28  1  0
 28 33  1  0
 28 29  2  0
 29 30  1  0
 30 31  1  0
 31 32  1  0
 32 33  1  0
  1 34  1  0
  1 35  1  0
  1 36  1  0
  4 37  1  0
  6 38  1  0
 10 39  1  0
 10 40  1  0
 13 41  1  0
 13 42  1  0
 15 43  1  0
 15 44  1  0
 15 45  1  0
 19 46  1  0
 19 47  1  0
 22 48  1  0
 25 49  1  0
 26 50  1  0
 26 51  1  0
 27 52  1  0
 27 53  1  0
 29 54  1  0
 30 55  1  0
 30 56  1  0
 31 57  1  0
 31 58  1  0
 32 59  1  0
 32 60  1  0
 33 61  1  0
 33 62  1  0
M  END
> <Name>
ZINC30344266

> <reference>
BDB50021151

> <quality>
0.778

> <status>
decoy

$$$$
ZINC03871263
  SciTegic06061311253D

 58 60  0  0  1  0            999 V2000
   -2.7329    3.2239    2.2878 C   0  0
   -3.4957    4.2831    2.4882 N   0  0
   -3.4753    5.3141    1.6498 C   0  0
   -2.6201    5.2558    0.5374 C   0  0
   -1.8287    4.1083    0.3687 C   0  0
   -1.9164    3.1263    1.2595 N   0  0
   -1.0981    4.3124   -0.7792 N   0  0
   -1.4420    5.5418   -1.2701 C   0  0
   -2.3425    6.0921   -0.4944 N   0  0
   -0.9210    6.1147   -2.4127 N   0  0
   -1.3714    7.4426   -2.8370 C   0  0
   -0.6435    7.8414   -4.1224 C   0  0
   -1.1138    9.2282   -4.5656 C   0  0
   -0.3859    9.6270   -5.8509 C   0  0
   -0.8563   11.0138   -6.2941 C   0  0
   -0.1284   11.4126   -7.5794 C   0  0
   -0.1258    3.3860   -1.3646 C   0  0  1  0  0  0
    1.1857    3.4230   -0.5563 C   0  0  2  0  0  0
    1.3270    1.9866    0.0035 C   0  0  1  0  0  0
   -0.1297    1.4629   -0.0745 C   0  0  1  0  0  0
   -0.6306    2.0417   -1.2987 O   0  0
   -0.1495   -0.0649   -0.1534 C   0  0
   -1.5010   -0.5269   -0.1070 O   0  0
   -1.8973   -2.0861   -0.1678 P   0  0
   -1.1846   -2.8184    0.9028 O   0  0
    2.1955    1.2021   -0.8164 O   0  0
    1.0890    4.3684    0.5109 O   0  0
   -4.2797    6.4210    1.8681 N   0  0
   -0.5725   12.7578   -7.9850 N   0  3
   -3.4860   -2.2445    0.0395 O   0  5
   -1.4802   -2.6903   -1.6007 O   0  5
   -2.7814    2.3925    3.0064 H   0  0
   -0.2156    5.6086   -2.9670 H   0  0
   -2.4555    7.4205   -3.0220 H   0  0
   -1.1489    8.1760   -2.0479 H   0  0
    0.4407    7.8641   -3.9380 H   0  0
   -0.8658    7.1097   -4.9131 H   0  0
   -2.1979    9.2061   -4.7506 H   0  0
   -0.8913    9.9616   -3.7765 H   0  0
    0.6983    9.6498   -5.6665 H   0  0
   -0.6081    8.8953   -6.6416 H   0  0
   -1.9404   10.9916   -6.4791 H   0  0
   -0.6339   11.7472   -5.5050 H   0  0
    0.9568   11.4227   -7.3996 H   0  0
   -0.3652   10.6920   -8.3761 H   0  0
    0.0504    3.6860   -2.4081 H   0  0
    2.0497    3.7261   -1.1660 H   0  0
    1.7608    1.9446    1.0135 H   0  0
   -0.7312    1.7324    0.8062 H   0  0
    0.3163   -0.3896   -1.0955 H   0  0
    0.4099   -0.4843    0.6958 H   0  0
    3.0853    1.6350   -0.8457 H   0  0
    0.3413    4.1092    1.1058 H   0  0
   -4.8997    6.4425    2.6903 H   0  0
   -4.2590    7.2167    1.2144 H   0  0
   -0.3511   13.4359   -7.2420 H   0  0
   -1.5884   12.7522   -8.1548 H   0  0
   -0.0849   13.0307   -8.8503 H   0  0
  1  6  1  0
  1  2  2  0
  2  3  1  0
  3  4  2  0
  3 28  1  0
  4  9  1  0
  4  5  1  0
  5  6  2  0
  5  7  1  0
  7  8  1  0
  7 17  1  0
  8  9  2  0
  8 10  1  0
 10 11  1  0
 11 12  1  0
 12 13  1  0
 13 14  1  0
 14 15  1  0
 15 16  1  0
 16 29  1  0
 17 21  1  0
 17 18  1  0
 18 19  1  0
 18 27  1  0
 19 20  1  0
 19 26  1  0
 20 21  1  0
 20 22  1  0
 22 23  1  0
 23 24  1  0
 24 25  2  0
 24 30  1  0
 24 31  1  0
  1 32  1  0
 10 33  1  0
 11 34  1  0
 11 35  1  0
 12 36  1  0
 12 37  1  0
 13 38  1  0
 13 39  1  0
 14 40  1  0
 14 41  1  0
 15 42  1  0
 15 43  1  0
 16 44  1  0
 16 45  1  0
 17 46  1  0
 18 47  1  0
 19 48  1  0
 20 49  1  0
 22 50  1  0
 22 51  1  0
 26 52  1  0
 27 53  1  0
 28 54  1  0
 28 55  1  0
 29 56  1  0
 29 57  1  0
 29 58  1  0
M  CHG  3  29   1  30  -1  31  -1
M  END
> <Name>
ZINC03871263

> <reference>
BDB50021151

> <quality>
0.764

> <status>
decoy

$$$$
ZINC09619237
  SciTegic06061311253D

 69 71  0  0  1  0            999 V2000
    5.2559    4.0323    0.4221 C   0  0
    3.9772    3.2408    0.3247 C   0  0
    4.0333    1.9055    0.1326 C   0  0
    2.8409    1.1594    0.0469 C   0  0
    1.6298    1.8179    0.1516 C   0  0
    1.6226    3.2035    0.3498 C   0  0
    0.5613    3.7994    0.4490 O   0  0
    2.7830    3.8805    0.4319 N   0  0
    2.7583    5.3304    0.6405 C   0  0
    2.7711    6.0409   -0.7144 C   0  0
    1.5662    5.7401   -1.4214 O   0  0
    1.4768    6.3580   -2.7068 C   0  0
    0.3345    1.0531    0.0598 C   0  0  2  0  0  0
   -0.4213    1.4909   -1.1683 C   0  0
   -1.1588    2.6600   -1.1441 C   0  0
   -1.8493    3.0688   -2.2698 C   0  0
   -1.8124    2.3003   -3.4223 C   0  0
   -1.0747    1.1206   -3.4448 C   0  0
   -0.3803    0.7195   -2.3148 C   0  0
   -1.0351    0.3632   -4.5736 O   0  0
   -0.2573   -0.8346   -4.5242 C   0  0
   -2.4959    2.6979   -4.5287 O   0  0
   -3.2314    3.9194   -4.4328 C   0  0
    0.2646    0.9880    2.4796 C   0  0
   -0.5829    1.3530    3.7006 C   0  0
   -2.5983    0.9533    2.4211 C   0  0
   -1.7508    0.5883    1.2001 C   0  0
   -2.6682    0.8882    4.8410 C   0  0
   -2.7169    2.3955    5.0992 C   0  0
   -3.4228    3.0383    4.0359 O   0  0
    2.8806   -0.1816   -0.1396 O   0  0
   -0.4831    1.3465    1.2562 N   0  0
   -1.8506    0.5948    3.6445 N   0  3
    5.2048    4.5481    1.3923 H   0  0
    5.1823    4.8002   -0.3620 H   0  0
    6.1628    3.4178    0.3222 H   0  0
    5.0070    1.4015    0.0433 H   0  0
    3.6421    5.6336    1.2210 H   0  0
    1.8463    5.6064    1.1900 H   0  0
    2.8424    7.1274   -0.5581 H   0  0
    3.6355    5.6974   -1.3017 H   0  0
    2.3433    6.0238   -3.2963 H   0  0
    1.5554    7.4451   -2.5583 H   0  0
    0.5358    6.1001   -3.2147 H   0  0
    0.5455   -0.0248    0.0001 H   0  0
   -1.1963    3.2663   -0.2270 H   0  0
   -2.4280    4.0041   -2.2507 H   0  0
    0.2035   -0.2126   -2.3300 H   0  0
   -0.6632   -1.4330   -3.6952 H   0  0
    0.7637   -0.5293   -4.2515 H   0  0
   -0.2739   -1.3921   -5.4723 H   0  0
   -2.5053    4.6963   -4.1515 H   0  0
   -3.9323    3.7933   -3.5945 H   0  0
   -3.7566    4.1742   -5.3652 H   0  0
    0.4694   -0.0928    2.4819 H   0  0
    1.2120    1.5462    2.5086 H   0  0
   -0.0376    1.0906    4.6192 H   0  0
   -0.7988    2.4316    3.6912 H   0  0
   -3.5461    0.3958    2.3928 H   0  0
   -2.8023    2.0342    2.4181 H   0  0
   -1.5352   -0.4903    1.2105 H   0  0
   -2.2954    0.8500    0.2809 H   0  0
   -3.6896    0.5111    4.6844 H   0  0
   -2.2293    0.3829    5.7139 H   0  0
   -3.2338    2.5881    6.0509 H   0  0
   -1.6926    2.7930    5.1513 H   0  0
   -4.3454    2.6824    3.9884 H   0  0
    3.4333   -0.5220    0.6078 H   0  0
   -1.6380   -0.4128    3.6240 H   0  0
  1  2  1  0
  2  8  1  0
  2  3  2  0
  3  4  1  0
  4  5  2  0
  4 31  1  0
  5  6  1  0
  5 13  1  0
  6  7  2  0
  6  8  1  0
  8  9  1  0
  9 10  1  0
 10 11  1  0
 11 12  1  0
 13 14  1  0
 13 32  1  0
 14 19  2  0
 14 15  1  0
 15 16  2  0
 16 17  1  0
 17 18  2  0
 17 22  1  0
 18 19  1  0
 18 20  1  0
 20 21  1  0
 22 23  1  0
 24 25  1  0
 24 32  1  0
 25 33  1  0
 26 27  1  0
 26 33  1  0
 27 32  1  0
 28 29  1  0
 28 33  1  0
 29 30  1  0
  1 34  1  0
  1 35  1  0
  1 36  1  0
  3 37  1  0
  9 38  1  0
  9 39  1  0
 10 40  1  0
 10 41  1  0
 12 42  1  0
 12 43  1  0
 12 44  1  0
 13 45  1  0
 15 46  1  0
 16 47  1  0
 19 48  1  0
 21 49  1  0
 21 50  1  0
 21 51  1  0
 23 52  1  0
 23 53  1  0
 23 54  1  0
 24 55  1  0
 24 56  1  0
 25 57  1  0
 25 58  1  0
 26 59  1  0
 26 60  1  0
 27 61  1  0
 27 62  1  0
 28 63  1  0
 28 64  1  0
 29 65  1  0
 29 66  1  0
 30 67  1  0
 31 68  1  0
 33 69  1  0
M  CHG  1  33   1
M  END
> <Name>
ZINC09619237

> <reference>
BDB50021151

> <quality>
0.761

> <status>
decoy

$$$$
ZINC25081185
  SciTegic06061311253D

 52 54  0  0  1  0            999 V2000
    0.1517   -3.4837   -7.0500 C   0  0
    0.1083   -3.1889   -5.5493 C   0  0
    0.1172   -1.7752   -5.3411 O   0  0
    0.0819   -1.3405   -4.0529 C   0  0
    0.0883    0.0194   -3.7799 C   0  0
    0.0525    0.4616   -2.4720 C   0  0
    0.0101   -0.4555   -1.4303 C   0  0
    0.0091   -1.8168   -1.7044 C   0  0
    0.0401   -2.2573   -3.0130 C   0  0
   -0.0258   -0.0083   -0.1047 N   0  5
   -1.0976   -0.6769    0.9660 S   0  0
   -0.9082   -2.0839    0.9052 O   0  0
   -0.9734    0.0569    2.1766 O   0  0
   -2.7171   -0.3595    0.3487 C   0  0
   -3.5293   -1.4100   -0.0312 C   0  0
   -4.8068   -1.1601   -0.5135 C   0  0
   -5.2636    0.1468   -0.6230 C   0  0
   -4.4490    1.1962   -0.2473 C   0  0
   -3.1740    0.9454    0.2391 C   0  0
   -2.3719    1.9795    0.6080 O   0  0
   -2.8614    3.2996    0.3635 C   0  0
   -5.6332   -2.2256   -0.8941 N   0  0
   -6.4830   -2.0824   -1.9304 C   0  0
   -6.4679   -1.0654   -2.5911 O   0  0
   -7.4520   -3.1861   -2.2682 C   0  0
   -8.2946   -2.7728   -3.4765 C   0  0  2  0  0  0
   -9.3609   -3.8113   -3.7634 C   0  0
  -10.2639   -4.1552   -3.0312 O   0  0
   -9.0968   -4.2721   -5.0020 N   0  0
   -8.0230   -3.6753   -5.5320 C   0  0
   -7.5898   -3.9242   -6.6399 O   0  0
   -7.4768   -2.7687   -4.7017 N   0  5
    1.0682   -3.0559   -7.4824 H   0  0
   -0.7267   -3.0364   -7.5381 H   0  0
    0.1449   -4.5718   -7.2110 H   0  0
   -0.8086   -3.6168   -5.1178 H   0  0
    0.9867   -3.6362   -5.0611 H   0  0
    0.1219    0.7458   -4.6053 H   0  0
    0.0576    1.5401   -2.2556 H   0  0
   -0.0164   -2.5441   -0.8795 H   0  0
    0.0316   -3.3355   -3.2306 H   0  0
   -3.1639   -2.4445    0.0484 H   0  0
   -6.2742    0.3458   -1.0090 H   0  0
   -4.8108    2.2314   -0.3336 H   0  0
   -3.8234    3.3754    0.8915 H   0  0
   -3.0635    3.3594   -0.7161 H   0  0
   -2.1585    4.0810    0.6880 H   0  0
   -5.5913   -3.1183   -0.3820 H   0  0
   -8.1121   -3.3720   -1.4081 H   0  0
   -6.8942   -4.1035   -2.5074 H   0  0
   -8.7124   -1.7840   -3.2364 H   0  0
   -9.6529   -4.9945   -5.4814 H   0  0
  1  2  1  0
  2  3  1  0
  3  4  1  0
  4  9  2  0
  4  5  1  0
  5  6  2  0
  6  7  1  0
  7  8  2  0
  7 10  1  0
  8  9  1  0
 10 11  1  0
 11 12  2  0
 11 13  2  0
 11 14  1  0
 14 19  2  0
 14 15  1  0
 15 16  2  0
 16 17  1  0
 16 22  1  0
 17 18  2  0
 18 19  1  0
 19 20  1  0
 20 21  1  0
 22 23  1  0
 23 24  2  0
 23 25  1  0
 25 26  1  0
 26 32  1  0
 26 27  1  0
 27 28  2  0
 27 29  1  0
 29 30  1  0
 30 31  2  0
 30 32  1  0
  1 33  1  0
  1 34  1  0
  1 35  1  0
  2 36  1  0
  2 37  1  0
  5 38  1  0
  6 39  1  0
  8 40  1  0
  9 41  1  0
 15 42  1  0
 17 43  1  0
 18 44  1  0
 21 45  1  0
 21 46  1  0
 21 47  1  0
 22 48  1  0
 25 49  1  0
 25 50  1  0
 26 51  1  0
 29 52  1  0
M  CHG  2  10  -1  32  -1
M  END
> <Name>
ZINC25081185

> <reference>
BDB50021151

> <quality>
0.755

> <status>
decoy

$$$$
ZINC09577594
  SciTegic06061311253D

 58 60  0  0  1  0            999 V2000
   -6.2263    3.8591    2.5130 C   0  0
   -5.6467    4.1447    1.2910 C   0  0
   -4.6715    3.3298    0.8196 C   0  0
   -4.5372    2.1205    2.1260 S   0  0
   -5.7950    2.7786    3.2086 C   0  0
   -3.7658    3.4400   -0.6878 S   0  0
   -4.6308    4.0472   -1.6378 O   0  0
   -3.1752    2.1652   -0.9008 O   0  0
   -2.5208    4.5021   -0.4345 N   0  0
   -2.6062    5.8925   -0.9087 C   0  0
   -2.2514    6.8203    0.2601 C   0  0
   -0.9168    6.3724    0.8630 C   0  0
   -1.0260    5.0203    1.3132 O   0  0
   -1.3009    4.0806    0.2695 C   0  0  1  0  0  0
   -1.5109    2.6903    0.8728 C   0  0
   -0.3273    2.3104    1.6480 N   0  0
   -0.2444    1.0802    2.1922 C   0  0
   -1.1881    0.3206    2.1214 O   0  0
    1.0097    0.6515    2.8828 C   0  0
    1.9182    1.4413    3.0362 O   0  0
    1.1317   -0.6122    3.3352 N   0  0
    2.3611   -1.0324    4.0121 C   0  0
    2.2410   -2.5016    4.4220 C   0  0
    3.5249   -2.9404    5.1290 C   0  0
    2.3738   -4.5281    6.5508 C   0  0
    2.2458   -6.0161    6.8876 C   0  0
    3.5180   -6.5155    7.3088 O   0  0
    4.5501   -6.3598    6.3311 C   0  0
    4.7015   -4.8753    5.9888 C   0  0
    3.4024   -4.3665    5.5014 N   0  0
   -7.0256    4.4991    2.9149 H   0  0
   -5.9720    5.0202    0.7098 H   0  0
   -6.1324    2.4044    4.1864 H   0  0
   -3.6296    6.1056   -1.2512 H   0  0
   -1.8934    6.0472   -1.7321 H   0  0
   -2.1612    7.8541   -0.1048 H   0  0
   -3.0379    6.7649    1.0272 H   0  0
   -0.6612    7.0216    1.7134 H   0  0
   -0.1280    6.4414    0.0995 H   0  0
   -0.4558    4.0428   -0.4336 H   0  0
   -2.3911    2.7058    1.5324 H   0  0
   -1.6700    1.9596    0.0661 H   0  0
    0.4416    2.9835    1.7771 H   0  0
    0.3606   -1.2825    3.2050 H   0  0
    3.2153   -0.9113    3.3297 H   0  0
    2.5172   -0.4141    4.9084 H   0  0
    1.3872   -2.6233    5.1047 H   0  0
    2.0860   -3.1217    3.5268 H   0  0
    4.3815   -2.8095    4.4514 H   0  0
    3.6724   -2.3352    6.0356 H   0  0
    2.6746   -3.9702    7.4499 H   0  0
    1.4091   -4.1493    6.1822 H   0  0
    1.5136   -6.1476    7.6979 H   0  0
    1.9121   -6.5680    5.9965 H   0  0
    5.4994   -6.7416    6.7349 H   0  0
    4.2844   -6.9200    5.4225 H   0  0
    5.0009   -4.3182    6.8888 H   0  0
    5.4625   -4.7528    5.2041 H   0  0
  1  5  2  0
  1  2  1  0
  2  3  2  0
  3  4  1  0
  3  6  1  0
  4  5  1  0
  6  7  2  0
  6  8  2  0
  6  9  1  0
  9 14  1  0
  9 10  1  0
 10 11  1  0
 11 12  1  0
 12 13  1  0
 13 14  1  0
 14 15  1  0
 15 16  1  0
 16 17  1  0
 17 18  2  0
 17 19  1  0
 19 20  2  0
 19 21  1  0
 21 22  1  0
 22 23  1  0
 23 24  1  0
 24 30  1  0
 25 26  1  0
 25 30  1  0
 26 27  1  0
 27 28  1  0
 28 29  1  0
 29 30  1  0
  1 31  1  0
  2 32  1  0
  5 33  1  0
 10 34  1  0
 10 35  1  0
 11 36  1  0
 11 37  1  0
 12 38  1  0
 12 39  1  0
 14 40  1  0
 15 41  1  0
 15 42  1  0
 16 43  1  0
 21 44  1  0
 22 45  1  0
 22 46  1  0
 23 47  1  0
 23 48  1  0
 24 49  1  0
 24 50  1  0
 25 51  1  0
 25 52  1  0
 26 53  1  0
 26 54  1  0
 28 55  1  0
 28 56  1  0
 29 57  1  0
 29 58  1  0
M  END
> <Name>
ZINC09577594

> <reference>
BDB50021151

> <quality>
0.753

> <status>
decoy

$$$$
ZINC19609291
  SciTegic06061311253D

 57 58  0  0  1  0            999 V2000
    3.8603    6.0553   -5.9284 C   0  0
    3.6711    7.4201   -5.2631 C   0  0
    4.4877    7.4969   -4.0929 O   0  0
    4.4371    8.6445   -3.3848 C   0  0
    3.7183    9.5550   -3.7523 O   0  0
    5.2196    8.7891   -2.2153 C   0  0
    4.8414    8.2250   -1.0481 C   0  0
    5.5954    8.3693    0.0813 N   0  0
    6.7457    9.0533    0.1238 C   0  0
    7.3503    9.1221    1.1761 O   0  0
    7.2525    9.6723   -0.9608 N   0  0
    6.5110    9.5817   -2.2298 C   0  0  1  0  0  0
    7.4374    8.9549   -3.2738 C   0  0
    3.5634    7.4285   -0.9894 C   0  0
    3.9564    5.6589   -0.9205 S   0  0
    2.3335    4.8512   -0.8548 C   0  0
    2.5182    3.3568   -0.7938 C   0  0
    3.6306    2.8851   -0.7946 O   0  0
    1.4470    2.5499   -0.7386 O   0  0
    1.7002    1.1212   -0.6818 C   0  0
    0.3890    0.3806   -0.6249 C   0  0
   -0.6560    0.9959   -0.6367 O   0  0
    0.3775   -0.9659   -0.5666 N   0  0
   -0.8283   -1.6461   -0.4111 C   0  0
   -1.8517   -1.0806    0.3445 C   0  0
   -3.0416   -1.7442    0.4962 C   0  0
   -3.2229   -2.9978   -0.1016 C   0  0
   -2.1886   -3.5651   -0.8565 C   0  0
   -1.0040   -2.8919   -1.0071 C   0  0
   -4.4939   -3.7148    0.0623 C   0  0
   -4.6492   -4.8002   -0.4565 O   0  0
   -5.6054   -3.1022    0.8750 C   0  0
    3.5691    5.2604   -5.2261 H   0  0
    4.9159    5.9265   -6.2097 H   0  0
    3.2320    5.9955   -6.8293 H   0  0
    3.9629    8.2144   -5.9660 H   0  0
    2.6155    7.5489   -4.9818 H   0  0
    5.2604    7.9272    0.9492 H   0  0
    8.1374   10.1963   -0.9034 H   0  0
    6.2065   10.6147   -2.4539 H   0  0
    6.9721    8.9984   -4.2696 H   0  0
    7.6547    7.9093   -3.0100 H   0  0
    8.3809    9.5199   -3.2965 H   0  0
    2.9951    7.7125   -0.0914 H   0  0
    2.9600    7.6346   -1.8858 H   0  0
    1.7562    5.1122   -1.7540 H   0  0
    1.7912    5.1900    0.0403 H   0  0
    2.2915    0.8879    0.2159 H   0  0
    2.2571    0.8114   -1.5784 H   0  0
    1.2602   -1.4920   -0.6370 H   0  0
   -1.7053   -0.0998    0.8205 H   0  0
   -3.8527   -1.2929    1.0865 H   0  0
   -2.3266   -4.5494   -1.3278 H   0  0
   -0.1910   -3.3367   -1.5998 H   0  0
   -5.7899   -2.1234    0.4082 H   0  0
   -5.1597   -2.9083    1.8618 H   0  0
   -6.5133   -3.7203    0.9349 H   0  0
  1  2  1  0
  2  3  1  0
  3  4  1  0
  4  5  2  0
  4  6  1  0
  6 12  1  0
  6  7  2  0
  7  8  1  0
  7 14  1  0
  8  9  1  0
  9 10  2  0
  9 11  1  0
 11 12  1  0
 12 13  1  0
 14 15  1  0
 15 16  1  0
 16 17  1  0
 17 18  2  0
 17 19  1  0
 19 20  1  0
 20 21  1  0
 21 22  2  0
 21 23  1  0
 23 24  1  0
 24 29  2  0
 24 25  1  0
 25 26  2  0
 26 27  1  0
 27 28  2  0
 27 30  1  0
 28 29  1  0
 30 31  2  0
 30 32  1  0
  1 33  1  0
  1 34  1  0
  1 35  1  0
  2 36  1  0
  2 37  1  0
  8 38  1  0
 11 39  1  0
 12 40  1  0
 13 41  1  0
 13 42  1  0
 13 43  1  0
 14 44  1  0
 14 45  1  0
 16 46  1  0
 16 47  1  0
 20 48  1  0
 20 49  1  0
 23 50  1  0
 25 51  1  0
 26 52  1  0
 28 53  1  0
 29 54  1  0
 32 55  1  0
 32 56  1  0
 32 57  1  0
M  END
> <Name>
ZINC19609291

> <reference>
BDB50021151

> <quality>
0.744

> <status>
decoy

$$$$
ZINC13548098
  SciTegic06061311253D

 50 51  0  0  1  0            999 V2000
   -3.4910   -0.6398   -1.2589 C   0  0
   -1.4333   -0.5336    0.0129 C   0  0
    0.0021   -0.0041    0.0020 C   0  0
   -0.0173    1.4248    0.0099 O   0  0
    1.3209    2.3199    0.0019 P   0  0
    2.1650    1.9351   -1.1513 O   0  0
    0.9250    3.8759   -0.1183 O   0  0
    1.7195    5.2001   -0.5737 P   0  0
    2.4796    4.9180   -1.8118 O   0  0
    0.6687    6.3886   -0.8480 O   0  0
    1.0535    7.6634   -1.3668 C   0  0
   -0.1840    8.5524   -1.5050 C   0  0  2  0  0  0
    0.1882    9.8909   -2.1804 C   0  0  2  0  0  0
   -0.6884   10.9350   -1.4532 C   0  0  2  0  0  0
   -1.4865   10.1037   -0.4244 C   0  0  1  0  0  0
   -0.6846    8.9233   -0.2020 O   0  0
   -1.6464   10.8542    0.8236 N   0  0
   -2.8887   11.2443    1.2255 C   0  0
   -3.0242   11.9326    2.3837 C   0  0
   -1.8713   12.2368    3.1364 C   0  0
   -0.6818   11.8409    2.7027 N   0  0
   -0.5652   11.1594    1.5644 C   0  0
    0.5397   10.8064    1.1868 O   0  0
   -1.9794   12.9405    4.3134 N   0  0
   -1.5735   11.5747   -2.3748 O   0  0
   -0.1288    9.8540   -3.5733 O   0  0
   -2.1026   -0.1416   -1.2418 N   0  3
    2.1367    2.0778    1.3686 O   0  5
    2.7378    5.6426    0.5922 O   0  5
   -4.0374   -0.2153   -0.4037 H   0  0
   -3.4820   -1.7366   -1.1753 H   0  0
   -3.9832   -0.3437   -2.1970 H   0  0
   -1.4199   -1.6305    0.0946 H   0  0
   -1.9774   -0.1061    0.8680 H   0  0
    0.5341   -0.3680    0.8934 H   0  0
    0.5178   -0.3581   -0.9028 H   0  0
    1.5222    7.5328   -2.3533 H   0  0
    1.7702    8.1377   -0.6802 H   0  0
   -0.9226    7.9829   -2.0882 H   0  0
    1.2625   10.1167   -2.1107 H   0  0
   -0.0953   11.7340   -0.9843 H   0  0
   -2.4977    9.8589   -0.7814 H   0  0
   -3.7718   11.0027    0.6157 H   0  0
   -4.0183   12.2495    2.7320 H   0  0
   -2.9055   13.2457    4.6452 H   0  0
   -1.1363   13.1619    4.8621 H   0  0
   -2.1534   10.8905   -2.7939 H   0  0
   -1.0991    9.6886   -3.6797 H   0  0
   -1.5877   -0.5380   -2.0410 H   0  0
   -2.1064    0.8855   -1.3193 H   0  0
  1 27  1  0
  2  3  1  0
  2 27  1  0
  3  4  1  0
  4  5  1  0
  5  6  2  0
  5  7  1  0
  5 28  1  0
  7  8  1  0
  8  9  2  0
  8 10  1  0
  8 29  1  0
 10 11  1  0
 11 12  1  0
 12 16  1  0
 12 13  1  0
 13 14  1  0
 13 26  1  0
 14 15  1  0
 14 25  1  0
 15 16  1  0
 15 17  1  0
 17 22  1  0
 17 18  1  0
 18 19  2  0
 19 20  1  0
 20 21  2  0
 20 24  1  0
 21 22  1  0
 22 23  2  0
  1 30  1  0
  1 31  1  0
  1 32  1  0
  2 33  1  0
  2 34  1  0
  3 35  1  0
  3 36  1  0
 11 37  1  0
 11 38  1  0
 12 39  1  0
 13 40  1  0
 14 41  1  0
 15 42  1  0
 18 43  1  0
 19 44  1  0
 24 45  1  0
 24 46  1  0
 25 47  1  0
 26 48  1  0
 27 49  1  0
 27 50  1  0
M  CHG  3  27   1  28  -1  29  -1
M  END
> <Name>
ZINC13548098

> <reference>
BDB50021151

> <quality>
0.743

> <status>
decoy

$$$$
ZINC27314639
  SciTegic06061311253D

 54 56  0  0  0  0            999 V2000
    2.9278    4.2798   -1.4262 C   0  0
    1.6366    3.6826   -1.2910 O   0  0
    1.5953    2.3361   -1.1119 C   0  0
    0.3751    1.6907   -0.9735 C   0  0
    0.3357    0.3218   -0.7919 C   0  0
    1.5111   -0.4050   -0.7482 C   0  0
    2.7285    0.2359   -0.8859 C   0  0
    2.7732    1.6046   -1.0672 C   0  0
    1.4653   -1.8982   -0.5496 C   0  0
    1.3866   -2.5916   -1.9111 C   0  0
    1.3421   -4.0431   -1.7181 N   0  0
    1.2694   -4.8759   -2.8021 C   0  0
    1.2270   -6.2558   -2.6185 C   0  0
    1.2790   -7.1172   -3.7335 C   0  0
    2.2972   -7.1902   -4.4007 O   0  0
    0.0990   -7.9320   -4.0938 C   0  0
   -1.1062   -7.7604   -3.4046 C   0  0
   -2.2098   -8.5122   -3.7395 C   0  0
   -2.1314   -9.4550   -4.7568 C   0  0
   -0.9258   -9.6393   -5.4506 C   0  0
    0.1892   -8.8740   -5.1150 C   0  0
   -0.8391  -10.6397   -6.5321 C   0  0
   -1.8134  -11.3063   -6.8231 O   0  0
    0.3200  -10.8143   -7.1972 N   0  0
   -3.2189  -10.1969   -5.0786 O   0  5
    1.1345   -6.7786   -1.3487 N   0  3
    0.0539   -6.5258   -0.6219 C   0  0
   -0.0742   -7.0336    0.6547 C   0  0
    0.9432   -7.8171    1.1788 C   0  0
    2.0647   -8.0642    0.3918 C   0  0
    2.1251   -7.5272   -0.8836 C   0  0
    3.0848   -8.8264    0.8670 O   0  5
    1.2294   -4.2020   -4.4296 S   0  5
    3.4112    3.7815   -2.2794 H   0  0
    3.4884    4.0134   -0.5180 H   0  0
    2.8798    5.3696   -1.5676 H   0  0
   -0.5603    2.2685   -1.0083 H   0  0
   -0.6316   -0.1904   -0.6820 H   0  0
    3.6622   -0.3446   -0.8510 H   0  0
    3.7420    2.1141   -1.1760 H   0  0
    2.3740   -2.2263   -0.0236 H   0  0
    0.5802   -2.1628    0.0475 H   0  0
    0.4779   -2.2642   -2.4375 H   0  0
    2.2716   -2.3290   -2.5093 H   0  0
    1.3655   -4.4370   -0.7667 H   0  0
   -1.1723   -7.0220   -2.5920 H   0  0
   -3.1570   -8.3659   -3.1997 H   0  0
    1.1373   -9.0136   -5.6550 H   0  0
    1.1453  -10.2495   -6.9507 H   0  0
    0.3805  -11.5125   -7.9520 H   0  0
   -0.7500   -5.9036   -1.0422 H   0  0
   -0.9737   -6.8193    1.2504 H   0  0
    0.8657   -8.2340    2.1938 H   0  0
    3.0031   -7.7236   -1.5165 H   0  0
  1  2  1  0
  2  3  1  0
  3  8  2  0
  3  4  1  0
  4  5  2  0
  5  6  1  0
  6  7  2  0
  6  9  1  0
  7  8  1  0
  9 10  1  0
 10 11  1  0
 11 12  1  0
 12 13  2  0
 12 33  1  0
 13 14  1  0
 13 26  1  0
 14 15  2  0
 14 16  1  0
 16 21  2  0
 16 17  1  0
 17 18  2  0
 18 19  1  0
 19 20  2  0
 19 25  1  0
 20 21  1  0
 20 22  1  0
 22 23  2  0
 22 24  1  0
 26 31  2  0
 26 27  1  0
 27 28  2  0
 28 29  1  0
 29 30  2  0
 30 31  1  0
 30 32  1  0
  1 34  1  0
  1 35  1  0
  1 36  1  0
  4 37  1  0
  5 38  1  0
  7 39  1  0
  8 40  1  0
  9 41  1  0
  9 42  1  0
 10 43  1  0
 10 44  1  0
 11 45  1  0
 17 46  1  0
 18 47  1  0
 21 48  1  0
 24 49  1  0
 24 50  1  0
 27 51  1  0
 28 52  1  0
 29 53  1  0
 31 54  1  0
M  CHG  4  25  -1  26   1  32  -1  33  -1
M  END
> <Name>
ZINC27314639

> <reference>
BDB50021151

> <quality>
0.739

> <status>
decoy

$$$$
ZINC31679525
  SciTegic06061311253D

 56 58  0  0  1  0            999 V2000
    0.6025    3.6931    1.2271 C   0  0
   -0.8100    3.1071    1.2741 C   0  0
   -0.7288    1.5792    1.2668 C   0  0  2  0  0  0
   -2.1123    0.9679    1.3676 C   0  0
   -3.0287    1.0970    0.5845 O   0  0
   -2.1119    0.2518    2.5093 N   0  0
   -0.9328    0.3250    3.1373 C   0  0
   -0.6904   -0.2375    4.1871 O   0  0
   -0.0455    1.0908    2.4770 N   0  5
   -3.2107   -0.4783    2.9807 N   0  0
   -3.9364   -0.0109    4.0157 C   0  0
   -3.6383    1.0418    4.5390 O   0  0
   -5.1184   -0.7963    4.5228 C   0  0
   -5.8800    0.0861    5.9075 S   0  0
   -7.1941   -1.0230    6.2916 C   0  0
   -7.4638   -2.1544    5.6826 N   0  0
   -8.4912   -2.7066    6.2225 N   0  0
   -8.9347   -1.9675    7.1996 C   0  0
   -8.1210   -0.8714    7.2826 N   0  0
   -8.2175    0.1621    8.1706 N   0  0
  -10.1207   -2.2680    8.0794 C   0  0
   -9.6914   -3.0172    9.2181 O   0  0
  -10.6462   -3.3725   10.1190 C   0  0
  -11.9659   -3.0031    9.9143 C   0  0
  -12.9360   -3.3697   10.8284 C   0  0
  -12.5911   -4.0958   11.9532 C   0  0
  -11.2754   -4.4627   12.1664 C   0  0
  -10.2990   -4.1030   11.2514 C   0  0
   -9.0041   -4.4627   11.4598 O   0  0
   -8.7213   -5.2116   12.6435 C   0  0
   -7.2244   -5.5219   12.7052 C   0  0
   -0.0127    1.0858    0.0080 C   0  0
    1.1093    3.3580    0.3101 H   0  0
    1.1712    3.3527    2.1050 H   0  0
    0.5449    4.7916    1.2323 H   0  0
   -1.3788    3.4475    0.3963 H   0  0
   -1.3159    3.4425    2.1915 H   0  0
   -3.4639   -1.3723    2.5363 H   0  0
   -5.8549   -0.9139    3.7142 H   0  0
   -4.7834   -1.7880    4.8608 H   0  0
   -7.5026    0.8957    8.0622 H   0  0
   -8.9423    0.2217    8.9000 H   0  0
  -10.5783   -1.3249    8.4129 H   0  0
  -10.8596   -2.8540    7.5131 H   0  0
  -12.2416   -2.4182    9.0245 H   0  0
  -13.9846   -3.0831   10.6604 H   0  0
  -13.3654   -4.3822   12.6802 H   0  0
  -11.0037   -5.0401   13.0623 H   0  0
   -9.0101   -4.6237   13.5273 H   0  0
   -9.2898   -6.1532   12.6276 H   0  0
   -6.6543   -4.5813   12.7223 H   0  0
   -6.9341   -6.1099   11.8220 H   0  0
   -7.0060   -6.0984   13.6162 H   0  0
    1.0030    1.5075   -0.0159 H   0  0
   -0.5673    1.4282   -0.8781 H   0  0
    0.0406   -0.0129    0.0120 H   0  0
  1  2  1  0
  2  3  1  0
  3  9  1  0
  3  4  1  0
  3 32  1  0
  4  5  2  0
  4  6  1  0
  6  7  1  0
  6 10  1  0
  7  8  2  0
  7  9  1  0
 10 11  1  0
 11 12  2  0
 11 13  1  0
 13 14  1  0
 14 15  1  0
 15 19  1  0
 15 16  2  0
 16 17  1  0
 17 18  2  0
 18 19  1  0
 18 21  1  0
 19 20  1  0
 21 22  1  0
 22 23  1  0
 23 28  2  0
 23 24  1  0
 24 25  2  0
 25 26  1  0
 26 27  2  0
 27 28  1  0
 28 29  1  0
 29 30  1  0
 30 31  1  0
  1 33  1  0
  1 34  1  0
  1 35  1  0
  2 36  1  0
  2 37  1  0
 10 38  1  0
 13 39  1  0
 13 40  1  0
 20 41  1  0
 20 42  1  0
 21 43  1  0
 21 44  1  0
 24 45  1  0
 25 46  1  0
 26 47  1  0
 27 48  1  0
 30 49  1  0
 30 50  1  0
 31 51  1  0
 31 52  1  0
 31 53  1  0
 32 54  1  0
 32 55  1  0
 32 56  1  0
M  CHG  1   9  -1
M  END
> <Name>
ZINC31679525

> <reference>
BDB50021151

> <quality>
0.738

> <status>
decoy

$$$$
ZINC22266529
  SciTegic06061311253D

 54 56  0  0  0  0            999 V2000
   -9.4684    7.5587    9.3560 C   0  0
  -10.0377    7.9378   10.5562 C   0  0
  -11.1925    8.7000   10.5650 C   0  0
  -11.7762    9.0886    9.3722 C   0  0
  -11.2069    8.7159    8.1699 C   0  0
  -10.0492    7.9517    8.1591 C   0  0
   -9.4878    7.5837    6.9772 O   0  0
   -8.2965    6.7971    7.0418 C   0  0
   -7.8226    6.4874    5.6452 C   0  0
   -8.4439    6.8996    4.6886 O   0  0
   -6.7085    5.7522    5.4591 N   0  0
   -6.2679    5.4643    4.1608 N   0  0
   -5.1537    4.7291    3.9747 C   0  0
   -4.5324    4.3169    4.9312 O   0  0
   -4.6799    4.4194    2.5781 C   0  0
   -3.4694    3.6202    2.6438 O   0  0
   -2.9150    3.2567    1.4766 C   0  0
   -3.4243    3.5952    0.4345 O   0  0
   -1.6574    2.4265    1.4659 C   0  0
   -1.2388    2.1534    0.0198 C   0  0
   -0.0162    1.3463    0.0094 N   0  0
    0.0021   -0.0041    0.0020 C   0  0
   -0.9515   -0.7526    0.0072 O   0  0
    1.4613   -0.3819   -0.0142 C   0  0  2  0  0  0
    1.8039   -1.2053   -1.2628 C   0  0
    2.8778   -2.2085   -0.7671 C   0  0
    2.3897   -2.5581    0.6614 C   0  0
    1.8306   -1.2257    1.2082 C   0  0
    2.1715    0.8986   -0.0139 N   0  5
    1.2223    1.8559    0.0004 C   0  0
    1.4634    3.0471    0.0041 O   0  0
  -11.9095    9.1700   12.0745 Cl  0  0
   -8.5551    6.9456    9.3494 H   0  0
   -9.5727    7.6335   11.5055 H   0  0
  -12.6941    9.6947    9.3812 H   0  0
  -11.6713    9.0249    7.2218 H   0  0
   -8.5047    5.8574    7.5744 H   0  0
   -7.5158    7.3570    7.5776 H   0  0
   -6.1810    5.4020    6.2715 H   0  0
   -6.7955    5.8145    3.3484 H   0  0
   -5.4600    3.8590    2.0419 H   0  0
   -4.4702    5.3580    2.0443 H   0  0
   -0.8538    2.9713    1.9830 H   0  0
   -1.8426    1.4717    1.9797 H   0  0
   -2.0418    1.6082   -0.4978 H   0  0
   -1.0520    3.1072   -0.4954 H   0  0
    2.2259   -0.5550   -2.0432 H   0  0
    0.9142   -1.7475   -1.6155 H   0  0
    2.8795   -3.1085   -1.3996 H   0  0
    3.8637   -1.7225   -0.7239 H   0  0
    3.2351   -2.8950    1.2794 H   0  0
    1.5904   -3.3124    0.6142 H   0  0
    0.9342   -1.4185    1.8160 H   0  0
    2.6027   -0.7111    1.7990 H   0  0
  1  6  2  0
  1  2  1  0
  2  3  2  0
  3  4  1  0
  3 32  1  0
  4  5  2  0
  5  6  1  0
  6  7  1  0
  7  8  1  0
  8  9  1  0
  9 10  2  0
  9 11  1  0
 11 12  1  0
 12 13  1  0
 13 14  2  0
 13 15  1  0
 15 16  1  0
 16 17  1  0
 17 18  2  0
 17 19  1  0
 19 20  1  0
 20 21  1  0
 21 30  1  0
 21 22  1  0
 22 23  2  0
 22 24  1  0
 24 28  1  0
 24 25  1  0
 24 29  1  0
 25 26  1  0
 26 27  1  0
 27 28  1  0
 29 30  1  0
 30 31  2  0
  1 33  1  0
  2 34  1  0
  4 35  1  0
  5 36  1  0
  8 37  1  0
  8 38  1  0
 11 39  1  0
 12 40  1  0
 15 41  1  0
 15 42  1  0
 19 43  1  0
 19 44  1  0
 20 45  1  0
 20 46  1  0
 25 47  1  0
 25 48  1  0
 26 49  1  0
 26 50  1  0
 27 51  1  0
 27 52  1  0
 28 53  1  0
 28 54  1  0
M  CHG  1  29  -1
M  END
> <Name>
ZINC22266529

> <reference>
BDB50021151

> <quality>
0.737

> <status>
decoy

$$$$
ZINC05810133
  SciTegic06061311253D

 59 59  0  0  1  0            999 V2000
   -4.4626    5.3962    1.9746 C   0  0
   -3.5313    6.3559    2.5825 N   0  3  2  0  0  0
   -3.8766    6.5439    3.9979 C   0  0
   -3.6266    7.6427    1.8802 C   0  0
   -2.1595    5.8410    2.4773 C   0  0
   -1.8302    5.5811    1.0298 C   0  0
   -2.6219    5.8863    0.1637 O   0  0
   -0.6557    5.0093    0.6981 N   0  0
   -0.3038    4.8632   -0.6500 N   0  0
    0.7813    4.2219   -0.9734 C   0  0
    1.5819    3.5124    0.0881 C   0  0  2  0  0  0
    2.9019    4.2149    0.2753 C   0  0
    3.3717    4.8678   -0.6257 O   0  0
    3.6273    4.1042    1.5718 C   0  0
    3.1552    3.4480    2.4774 O   0  0
    4.8079    4.7325    1.7393 N   0  0
    5.5370    4.5427    2.9083 C   0  0
    5.5100    3.3142    3.5562 C   0  0
    6.2389    3.1266    4.7131 C   0  0
    6.9924    4.1617    5.2429 C   0  0
    7.0267    5.3891    4.6170 C   0  0
    6.2991    5.5929    3.4424 C   0  0
    6.3311    6.9044    2.7677 C   0  0
    5.6148    7.1116    1.8073 O   0  0
    7.1543    7.8729    3.2158 N   0  0
    1.8270    2.0873   -0.3362 C   0  0
    2.9572    1.6688   -0.4232 O   0  0
    0.7899    1.2829   -0.6175 O   0  0
    1.0935   -0.1070   -0.9079 C   0  0
    1.2249    4.1897   -2.3698 C   0  0
    2.2388    3.5905   -2.6719 O   0  0
    0.5084    4.8247   -3.3198 O   0  0
    1.0072    4.7505   -4.6814 C   0  0
   -5.4901    5.7811    2.0526 H   0  0
   -4.3919    4.4322    2.4997 H   0  0
   -4.2046    5.2549    0.9147 H   0  0
   -3.8054    5.5809    4.5248 H   0  0
   -4.9036    6.9298    4.0777 H   0  0
   -3.1796    7.2625    4.4537 H   0  0
   -4.6534    8.0293    1.9587 H   0  0
   -3.3680    7.5031    0.8202 H   0  0
   -2.9294    8.3619    2.3349 H   0  0
   -2.0740    4.9034    3.0461 H   0  0
   -1.4570    6.5827    2.8851 H   0  0
   -0.0168    4.6797    1.4358 H   0  0
    1.0238    3.5220    1.0360 H   0  0
    5.1701    5.3532    1.0015 H   0  0
    4.9072    2.4902    3.1468 H   0  0
    6.2215    2.1493    5.2177 H   0  0
    7.5662    4.0030    6.1679 H   0  0
    7.6265    6.2074    5.0421 H   0  0
    7.7611    7.6974    4.0294 H   0  0
    7.1766    8.7886    2.7447 H   0  0
    1.6310   -0.4967   -0.0308 H   0  0
    1.7922   -0.1007   -1.7575 H   0  0
    0.1936   -0.7000   -1.1279 H   0  0
    1.0754    3.6808   -4.9285 H   0  0
    2.0286    5.1583   -4.6599 H   0  0
    0.3699    5.2916   -5.3963 H   0  0
  1  2  1  0
  2  3  1  0
  2  4  1  0
  2  5  1  0
  5  6  1  0
  6  7  2  0
  6  8  1  0
  8  9  1  0
  9 10  2  0
 10 11  1  0
 10 30  1  0
 11 12  1  0
 11 26  1  0
 12 13  2  0
 12 14  1  0
 14 15  2  0
 14 16  1  0
 16 17  1  0
 17 22  2  0
 17 18  1  0
 18 19  2  0
 19 20  1  0
 20 21  2  0
 21 22  1  0
 22 23  1  0
 23 24  2  0
 23 25  1  0
 26 27  2  0
 26 28  1  0
 28 29  1  0
 30 31  2  0
 30 32  1  0
 32 33  1  0
  1 34  1  0
  1 35  1  0
  1 36  1  0
  3 37  1  0
  3 38  1  0
  3 39  1  0
  4 40  1  0
  4 41  1  0
  4 42  1  0
  5 43  1  0
  5 44  1  0
  8 45  1  0
 11 46  1  0
 16 47  1  0
 18 48  1  0
 19 49  1  0
 20 50  1  0
 21 51  1  0
 25 52  1  0
 25 53  1  0
 29 54  1  0
 29 55  1  0
 29 56  1  0
 33 57  1  0
 33 58  1  0
 33 59  1  0
M  CHG  1   2   1
M  END
> <Name>
ZINC05810133

> <reference>
BDB50021151

> <quality>
0.737

> <status>
decoy

$$$$
ZINC22226698
  SciTegic06061311253D

 54 55  0  0  1  0            999 V2000
    2.2128   -5.1330    0.3963 C   0  0
    1.6441   -4.1604   -0.6389 C   0  0
    1.6814   -2.8315   -0.1148 O   0  0
    1.2122   -1.8463   -0.9089 C   0  0
    0.7830   -2.1101   -2.0167 O   0  0
    1.2192   -0.5081   -0.4540 C   0  0
    2.3587    0.2008   -0.5236 C   0  0
    2.4066    1.5008   -0.1027 N   0  0
    1.2432    2.2201    0.0574 C   0  0
    0.0454    1.5831    0.1518 C   0  0
   -0.0472    0.0846    0.0941 C   0  0  2  0  0  0
   -0.2839   -0.4512    1.4826 C   0  0
   -1.3490   -1.1722    1.8766 C   0  0
   -1.1616   -1.4642    3.2472 C   0  0
    0.0028   -0.8972    3.6108 C   0  0
    0.5300   -0.2851    2.5379 O   0  0
   -1.1509    2.3555    0.3030 C   0  0
   -2.0999    2.9682    0.4230 N   0  0
    1.3071    3.9790    0.1407 S   0  0
    3.0899    4.2374   -0.0350 C   0  0
    3.3902    5.7135    0.0088 C   0  0
    2.4912    6.5092    0.1448 O   0  0
    4.6565    6.1444   -0.1034 O   0  0
    4.8715    7.5795   -0.0527 C   0  0  2  0  0  0
    4.7952    8.1569   -1.4675 C   0  0
    6.2306    7.8635    0.5331 C   0  0
    6.9832    6.9484    0.7900 O   0  0
    6.6094    9.1348    0.7715 N   0  0
    7.8249    9.3887    1.2954 C   0  0
    8.5794    8.4714    1.5529 O   0  0
    8.2037   10.6600    1.5338 N   0  0
    3.6031   -0.4473   -1.0735 C   0  0
    1.6106   -5.0851    1.3156 H   0  0
    3.2532   -4.8591    0.6256 H   0  0
    2.1844   -6.1562   -0.0065 H   0  0
    2.2470   -4.2087   -1.5577 H   0  0
    0.6037   -4.4343   -0.8682 H   0  0
    3.3154    1.9434    0.0952 H   0  0
   -0.8806   -0.1909   -0.5688 H   0  0
   -2.2021   -1.4763    1.2522 H   0  0
   -1.8381   -2.0438    3.8924 H   0  0
    0.4477   -0.9294    4.6163 H   0  0
    3.4285    3.8234   -0.9962 H   0  0
    3.6166    3.7320    0.7879 H   0  0
    4.0972    8.0443    0.5753 H   0  0
    3.8033    7.9504   -1.8959 H   0  0
    5.5694    7.6929   -2.0963 H   0  0
    4.9580    9.2441   -1.4298 H   0  0
    5.9700    9.9123    0.5533 H   0  0
    7.5643   11.4375    1.3156 H   0  0
    9.1326   10.8541    1.9342 H   0  0
    3.3296   -0.7956   -2.0804 H   0  0
    3.7671   -1.3387   -0.4503 H   0  0
    4.4771    0.2206   -1.0855 H   0  0
  1  2  1  0
  2  3  1  0
  3  4  1  0
  4  5  2  0
  4  6  1  0
  6 11  1  0
  6  7  2  0
  7  8  1  0
  7 32  1  0
  8  9  1  0
  9 10  2  0
  9 19  1  0
 10 11  1  0
 10 17  1  0
 11 12  1  0
 12 16  1  0
 12 13  2  0
 13 14  1  0
 14 15  2  0
 15 16  1  0
 17 18  3  0
 19 20  1  0
 20 21  1  0
 21 22  2  0
 21 23  1  0
 23 24  1  0
 24 25  1  0
 24 26  1  0
 26 27  2  0
 26 28  1  0
 28 29  1  0
 29 30  2  0
 29 31  1  0
  1 33  1  0
  1 34  1  0
  1 35  1  0
  2 36  1  0
  2 37  1  0
  8 38  1  0
 11 39  1  0
 13 40  1  0
 14 41  1  0
 15 42  1  0
 20 43  1  0
 20 44  1  0
 24 45  1  0
 25 46  1  0
 25 47  1  0
 25 48  1  0
 28 49  1  0
 31 50  1  0
 31 51  1  0
 32 52  1  0
 32 53  1  0
 32 54  1  0
M  END
> <Name>
ZINC22226698

> <reference>
BDB50021151

> <quality>
0.732

> <status>
decoy

$$$$
ZINC28944407
  SciTegic06061311253D

 55 58  0  0  0  0            999 V2000
    4.6492    8.1110   -0.3827 C   0  0
    3.2574    7.4846   -0.4895 C   0  0
    3.2594    6.1870    0.1620 O   0  0
    2.1022    5.4988    0.1571 C   0  0
    1.1176    5.9696   -0.3770 O   0  0
    2.0359    4.2876    0.7447 N   0  0
    0.8659    3.5325    0.6566 C   0  0
    0.9446    2.1434    0.5562 C   0  0
   -0.1906    1.3918    0.4693 C   0  0
   -1.4425    2.0185    0.4751 C   0  0
   -2.6772    1.2361    0.3891 C   0  0
   -3.8614    1.9017    0.4061 C   0  0
   -3.8742    3.3078    0.5101 C   0  0
   -4.9428    3.8921    0.5246 O   0  0
   -2.7389    4.0189    0.5939 O   0  0
   -1.5291    3.4191    0.5825 C   0  0
   -0.3661    4.1687    0.6700 C   0  0
   -2.6353   -0.2662    0.2782 C   0  0
   -2.5717   -0.7409   -1.4673 S   0  0
   -2.5314   -2.4950   -1.3061 C   0  0
   -2.5412   -3.1762   -0.1839 N   0  0
   -2.5059   -4.4357   -0.4374 N   0  0
   -2.4633   -4.6319   -1.7248 C   0  0
   -2.4780   -3.4029   -2.3245 N   0  0
   -2.4437   -3.1193   -3.7614 C   0  0  2  0  0  0
   -2.0738   -1.6986   -4.1925 C   0  0
   -3.5187   -2.1868   -4.3234 C   0  0
   -2.4081   -5.9659   -2.4236 C   0  0
   -0.9480   -6.3797   -2.6181 C   0  0
   -0.8928   -7.7138   -3.3169 C   0  0
   -1.9201   -8.2780   -3.6286 O   0  0
    0.2982   -8.2798   -3.5955 N   0  0
    5.3855    7.4567   -0.8725 H   0  0
    4.9167    8.2341    0.6772 H   0  0
    4.6484    9.0941   -0.8761 H   0  0
    2.5219    8.1393    0.0008 H   0  0
    2.9898    7.3615   -1.5493 H   0  0
    1.9282    1.6509    0.5470 H   0  0
   -0.1225    0.2964    0.3949 H   0  0
   -4.8078    1.3451    0.3389 H   0  0
   -5.4441    3.4955    1.2806 H   0  0
   -0.4205    5.2645    0.7498 H   0  0
   -1.7416   -0.6473    0.7940 H   0  0
   -3.5365   -0.6945    0.7412 H   0  0
   -2.0806   -4.1274   -4.0102 H   0  0
   -1.5614   -1.6925   -5.1659 H   0  0
   -1.9507   -1.0333   -3.3252 H   0  0
   -4.1555   -1.7775   -3.5253 H   0  0
   -3.7658   -2.4382   -5.3654 H   0  0
   -2.9246   -6.7214   -1.8132 H   0  0
   -2.9001   -5.8880   -3.4044 H   0  0
   -0.4546   -6.4592   -1.6382 H   0  0
   -0.4310   -5.6248   -3.2288 H   0  0
    1.1707   -7.8006   -3.3308 H   0  0
    0.3359   -9.1916   -4.0731 H   0  0
  1  2  1  0
  2  3  1  0
  3  4  1  0
  4  5  2  0
  4  6  1  0
  6  7  2  3
  7 17  1  0
  7  8  1  0
  8  9  2  0
  9 10  1  0
 10 16  1  0
 10 11  2  0
 11 12  1  0
 11 18  1  0
 12 13  2  0
 13 14  1  0
 13 15  1  0
 15 16  1  0
 16 17  2  0
 18 19  1  0
 19 20  1  0
 20 24  1  0
 20 21  2  0
 21 22  1  0
 22 23  2  0
 23 24  1  0
 23 28  1  0
 24 25  1  0
 25 27  1  0
 25 26  1  0
 26 27  1  0
 28 29  1  0
 29 30  1  0
 30 31  2  0
 30 32  1  0
  1 33  1  0
  1 34  1  0
  1 35  1  0
  2 36  1  0
  2 37  1  0
  8 38  1  0
  9 39  1  0
 12 40  1  0
 14 41  1  0
 17 42  1  0
 18 43  1  0
 18 44  1  0
 25 45  1  0
 26 46  1  0
 26 47  1  0
 27 48  1  0
 27 49  1  0
 28 50  1  0
 28 51  1  0
 29 52  1  0
 29 53  1  0
 32 54  1  0
 32 55  1  0
M  END
> <Name>
ZINC28944407

> <reference>
BDB50021151

> <quality>
0.730

> <status>
decoy

$$$$
ZINC17107039
  SciTegic06061311253D

 66 68  0  0  1  0            999 V2000
   10.6634    2.9193   -6.5791 C   0  0
   11.4429    2.7756   -5.2704 C   0  0
   10.6550    3.3402   -4.1666 N   0  0
   11.2577    3.0118   -2.8678 C   0  0
   10.2169    3.1956   -1.7616 C   0  0
   10.5071    4.7004   -4.3118 C   0  0
   11.4808    5.5848   -4.2349 N   0  0
   10.9961    6.8134   -4.4222 C   0  0
    9.6270    6.6961   -4.6365 C   0  0
    9.3336    5.3413   -4.5569 N   0  0
    8.0153    4.7217   -4.7130 C   0  0
    7.3720    4.5378   -3.3371 C   0  0
    5.9501    3.9990   -3.5068 C   0  0
    3.9631    3.3052   -2.3097 C   0  0
    3.3541    3.1349   -0.9165 C   0  0  1  0  0  0
    1.9494    2.6042   -1.0437 C   0  0
    1.7340    1.2435   -1.1598 C   0  0
    0.4473    0.7519   -1.2777 C   0  0
   -0.6299    1.6234   -1.2791 C   0  0
   -0.4131    2.9929   -1.1617 C   0  0
    0.8791    3.4791   -1.0439 C   0  0
   -1.4668    3.8527   -1.1682 O   0  0
   -1.8963    1.1414   -1.3954 O   0  0
    4.1442    2.2149   -0.1606 O   0  0
    8.8667    7.8557   -4.8693 C   0  0
    7.6650    7.7769   -5.0565 O   0  0
    9.4814    9.0565   -4.8828 N   0  0
   10.8058    9.1587   -4.6775 C   0  0
   11.3260   10.2577   -4.6967 O   0  0
   11.5695    8.0747   -4.4434 N   0  0
   13.0101    8.2275   -4.2259 C   0  0
    8.6933   10.2677   -5.1245 C   0  0
    5.3372    3.8246   -2.1764 N   0  3
   10.4683    3.9838   -6.7759 H   0  0
    9.7076    2.3807   -6.4988 H   0  0
   11.2529    2.4967   -7.4061 H   0  0
   12.3987    3.3141   -5.3506 H   0  0
   11.6373    1.7108   -5.0743 H   0  0
   12.1127    3.6780   -2.6801 H   0  0
   11.6019    1.9671   -2.8768 H   0  0
    9.3616    2.5293   -1.9471 H   0  0
    9.8718    4.2400   -1.7513 H   0  0
   10.6676    2.9498   -0.7887 H   0  0
    8.1250    3.7413   -5.1996 H   0  0
    7.3768    5.3690   -5.3321 H   0  0
    7.9659    3.8243   -2.7469 H   0  0
    7.3368    5.5055   -2.8153 H   0  0
    5.3543    4.7127   -4.0947 H   0  0
    5.9828    3.0296   -4.0256 H   0  0
    3.9866    2.3321   -2.8221 H   0  0
    3.3576    4.0150   -2.8924 H   0  0
    3.3334    4.1079   -0.4039 H   0  0
    2.5883    0.5505   -1.1584 H   0  0
    0.2787   -0.3311   -1.3704 H   0  0
    1.0532    4.5612   -0.9505 H   0  0
   -2.0510    3.5446   -0.4307 H   0  0
   -1.9925    0.4963   -0.6506 H   0  0
    5.0672    2.5628   -0.0762 H   0  0
   13.4829    7.5971   -4.9934 H   0  0
   13.2035    7.7534   -3.2523 H   0  0
   13.3607    9.2695   -4.2632 H   0  0
    7.9131   10.2662   -4.3490 H   0  0
    8.1953   10.1022   -6.0913 H   0  0
    9.2895   11.1921   -5.1150 H   0  0
    5.9003    3.1612   -1.6254 H   0  0
    5.3126    4.7318   -1.6892 H   0  0
  1  2  1  0
  2  3  1  0
  3  4  1  0
  3  6  1  0
  4  5  1  0
  6 10  1  0
  6  7  2  0
  7  8  1  0
  8 30  1  0
  8  9  2  0
  9 10  1  0
  9 25  1  0
 10 11  1  0
 11 12  1  0
 12 13  1  0
 13 33  1  0
 14 15  1  0
 14 33  1  0
 15 16  1  0
 15 24  1  0
 16 21  2  0
 16 17  1  0
 17 18  2  0
 18 19  1  0
 19 20  2  0
 19 23  1  0
 20 21  1  0
 20 22  1  0
 25 26  2  0
 25 27  1  0
 27 28  1  0
 27 32  1  0
 28 29  2  0
 28 30  1  0
 30 31  1  0
  1 34  1  0
  1 35  1  0
  1 36  1  0
  2 37  1  0
  2 38  1  0
  4 39  1  0
  4 40  1  0
  5 41  1  0
  5 42  1  0
  5 43  1  0
 11 44  1  0
 11 45  1  0
 12 46  1  0
 12 47  1  0
 13 48  1  0
 13 49  1  0
 14 50  1  0
 14 51  1  0
 15 52  1  0
 17 53  1  0
 18 54  1  0
 21 55  1  0
 22 56  1  0
 23 57  1  0
 24 58  1  0
 31 59  1  0
 31 60  1  0
 31 61  1  0
 32 62  1  0
 32 63  1  0
 32 64  1  0
 33 65  1  0
 33 66  1  0
M  CHG  1  33   1
M  END
> <Name>
ZINC17107039

> <reference>
BDB50021151

> <quality>
0.730

> <status>
decoy

$$$$
ZINC11676892
  SciTegic06061311253D

 62 63  0  0  1  0            999 V2000
   -1.2076   -2.2137   -8.5539 C   0  0
   -0.5131   -0.5382   -8.5233 S   0  0
   -1.0908    0.2500   -9.5549 O   0  0
    0.8972   -0.5959   -8.3593 O   0  0
   -1.0751    0.1298   -7.1161 N   0  5
   -0.6921   -0.3792   -5.9284 C   0  0
    0.0642   -1.3266   -5.8902 O   0  0
   -1.2035    0.2287   -4.6478 C   0  0
   -0.6205   -0.5307   -3.4543 C   0  0
   -1.1398    0.0865   -2.1542 C   0  0
   -0.5656   -0.6614   -0.9787 C   0  0
    0.0667   -0.0107   -0.0337 C   0  0
    0.0760    1.4963   -0.0332 C   0  0
   -0.3862    2.0087    1.3324 C   0  0  2  0  0  0
   -0.4876    3.5480    1.3113 C   0  0  2  0  0  0
    0.0074    3.9685    2.7191 C   0  0  2  0  0  0
    1.1425    2.9499    2.9893 C   0  0
    0.6342    1.6496    2.3923 C   0  0
    0.9793    0.5354    2.7051 O   0  0
   -1.0347    3.8371    3.6881 O   0  0
   -1.9152    3.9817    1.0995 C   0  0
   -2.2309    4.7095    0.0571 C   0  0
   -3.6585    5.1432   -0.1546 C   0  0  2  0  0  0
   -3.7134    6.6657   -0.2959 C   0  0
   -5.0479    7.0670   -0.6122 O   0  0
   -5.2704    8.3980   -0.7726 C   0  0
   -4.2269    9.2999   -0.6229 C   0  0
   -4.4544   10.6519   -0.7917 C   0  0
   -5.7232   11.1075   -1.0992 C   0  0
   -6.7661   10.2112   -1.2433 C   0  0
   -6.5426    8.8577   -1.0807 C   0  0
   -4.4499    4.7399    0.9648 O   0  0
   -0.9965   -2.6760   -9.5295 H   0  0
   -2.2961   -2.1578   -8.4057 H   0  0
   -0.7558   -2.8174   -7.7530 H   0  0
   -0.8978    1.2840   -4.5950 H   0  0
   -2.3013    0.1632   -4.6223 H   0  0
   -0.9262   -1.5861   -3.5062 H   0  0
    0.4773   -0.4653   -3.4775 H   0  0
   -2.2376    0.0210   -2.1288 H   0  0
   -0.8341    1.1418   -2.1014 H   0  0
   -0.6774   -1.7538   -0.9141 H   0  0
    0.5908   -0.5643    0.7593 H   0  0
   -0.6045    1.8686   -0.8132 H   0  0
    1.0957    1.8569   -0.2336 H   0  0
   -1.3622    1.5521    1.5537 H   0  0
    0.0972    4.0042    0.4990 H   0  0
    0.3319    5.0180    2.7762 H   0  0
    1.2970    2.8335    4.0722 H   0  0
    2.0635    3.2662    2.4777 H   0  0
   -1.3335    2.8935    3.7103 H   0  0
   -2.6922    3.6871    1.8203 H   0  0
   -1.4539    5.0041   -0.6637 H   0  0
   -4.0519    4.6756   -1.0693 H   0  0
   -3.4051    7.1333    0.6509 H   0  0
   -3.0348    6.9851   -1.1006 H   0  0
   -3.2192    8.9387   -0.3700 H   0  0
   -3.6256   11.3666   -0.6814 H   0  0
   -5.9032   12.1848   -1.2294 H   0  0
   -7.7746   10.5762   -1.4876 H   0  0
   -7.3726    8.1450   -1.1954 H   0  0
   -4.0967    5.1604    1.7885 H   0  0
  1  2  1  0
  2  3  2  0
  2  4  2  0
  2  5  1  0
  5  6  1  0
  6  7  2  0
  6  8  1  0
  8  9  1  0
  9 10  1  0
 10 11  1  0
 11 12  2  0
 12 13  1  0
 13 14  1  0
 14 18  1  0
 14 15  1  0
 15 16  1  0
 15 21  1  0
 16 17  1  0
 16 20  1  0
 17 18  1  0
 18 19  2  0
 21 22  2  0
 22 23  1  0
 23 24  1  0
 23 32  1  0
 24 25  1  0
 25 26  1  0
 26 31  2  0
 26 27  1  0
 27 28  2  0
 28 29  1  0
 29 30  2  0
 30 31  1  0
  1 33  1  0
  1 34  1  0
  1 35  1  0
  8 36  1  0
  8 37  1  0
  9 38  1  0
  9 39  1  0
 10 40  1  0
 10 41  1  0
 11 42  1  0
 12 43  1  0
 13 44  1  0
 13 45  1  0
 14 46  1  0
 15 47  1  0
 16 48  1  0
 17 49  1  0
 17 50  1  0
 20 51  1  0
 21 52  1  0
 22 53  1  0
 23 54  1  0
 24 55  1  0
 24 56  1  0
 27 57  1  0
 28 58  1  0
 29 59  1  0
 30 60  1  0
 31 61  1  0
 32 62  1  0
M  CHG  1   5  -1
M  END
> <Name>
ZINC11676892

> <reference>
BDB50021151

> <quality>
0.730

> <status>
decoy

$$$$
ZINC09804408
  SciTegic06061311253D

 51 53  0  0  0  0            999 V2000
    1.3168    2.0550   -0.0633 C   0  0
    0.0229    1.4492   -0.0350 O   0  0
    0.0496    0.0205   -0.0434 C   0  0
   -1.3826   -0.5166   -0.0115 C   0  0
   -2.0751   -0.1347   -1.2447 N   0  0
   -2.7623    1.0447   -1.2885 C   0  0
   -3.4200    1.4045   -2.4776 C   0  0
   -3.3386    0.4782   -3.6143 C   0  0
   -3.8918    0.7367   -4.6673 O   0  0
   -2.6375   -0.6649   -3.4673 N   0  0
   -2.0259   -0.9534   -2.3071 C   0  0
   -1.4047   -1.9941   -2.2158 O   0  0
   -4.1394    2.6148   -2.5744 C   0  0
   -4.2884    3.3130   -1.5918 O   0  0
   -4.7228    3.0408   -3.8970 C   0  0
   -5.5813    4.6262   -3.6966 S   0  0
   -6.1989    4.9832   -5.3077 C   0  0
   -6.0783    4.2876   -6.4225 N   0  0
   -6.6498    4.7527   -7.5843 N   0  0
   -7.3056    5.8969   -7.5809 C   0  0
   -7.1489    6.3873   -5.8704 S   0  0
   -7.9468    6.5478   -8.6287 N   0  0
   -8.0516    5.9270   -9.8786 C   0  0
   -8.2021    6.6955  -11.0257 C   0  0
   -8.2996    6.0823  -12.2592 C   0  0
   -8.2587    4.6989  -12.3516 C   0  0
   -8.1142    3.9303  -11.2060 C   0  0
   -8.0108    4.5419   -9.9722 C   0  0
   -8.3600    4.0957  -13.5663 O   0  0
   -8.5068    4.9482  -14.7037 C   0  0
   -2.8063    1.8601   -0.2002 N   0  0
    1.8287    1.7012   -0.9704 H   0  0
    1.8723    1.6916    0.8138 H   0  0
    1.2494    3.1529   -0.0557 H   0  0
    0.5962   -0.3423    0.8395 H   0  0
    0.5524   -0.3316   -0.9562 H   0  0
   -1.9149   -0.0934    0.8531 H   0  0
   -1.3613   -1.6132    0.0719 H   0  0
   -2.5704   -1.3250   -4.2552 H   0  0
   -3.9151    3.1527   -4.6353 H   0  0
   -5.4363    2.2800   -4.2464 H   0  0
   -8.3447    7.4869   -8.4851 H   0  0
   -8.2436    7.7922  -10.9517 H   0  0
   -8.4097    6.6911  -13.1687 H   0  0
   -8.0820    2.8333  -11.2803 H   0  0
   -7.8962    3.9322   -9.0638 H   0  0
   -7.6368    5.6213  -14.7000 H   0  0
   -9.4048    5.5565  -14.5204 H   0  0
   -8.5822    4.3888  -15.6478 H   0  0
   -2.3166    1.5838    0.6628 H   0  0
   -3.3258    2.7487   -0.2378 H   0  0
  1  2  1  0
  2  3  1  0
  3  4  1  0
  4  5  1  0
  5 11  1  0
  5  6  1  0
  6  7  2  0
  6 31  1  0
  7  8  1  0
  7 13  1  0
  8  9  2  0
  8 10  1  0
 10 11  1  0
 11 12  2  0
 13 14  2  0
 13 15  1  0
 15 16  1  0
 16 17  1  0
 17 21  1  0
 17 18  2  0
 18 19  1  0
 19 20  2  0
 20 21  1  0
 20 22  1  0
 22 23  1  0
 23 28  2  0
 23 24  1  0
 24 25  2  0
 25 26  1  0
 26 27  2  0
 26 29  1  0
 27 28  1  0
 29 30  1  0
  1 32  1  0
  1 33  1  0
  1 34  1  0
  3 35  1  0
  3 36  1  0
  4 37  1  0
  4 38  1  0
 10 39  1  0
 15 40  1  0
 15 41  1  0
 22 42  1  0
 24 43  1  0
 25 44  1  0
 27 45  1  0
 28 46  1  0
 30 47  1  0
 30 48  1  0
 30 49  1  0
 31 50  1  0
 31 51  1  0
M  END
> <Name>
ZINC09804408

> <reference>
BDB50021151

> <quality>
0.728

> <status>
decoy

$$$$
ZINC03806987
  SciTegic06061311253D

 50 52  0  0  1  0            999 V2000
    1.0149    1.6756    3.1672 C   0  0
    1.5424    1.0490    4.2687 C   0  0
    1.0023   -0.1796    4.6151 C   0  0
   -0.2480   -0.3968    3.3611 S   0  0
    0.0000    1.0800    2.4877 C   0  0
   -0.7288    1.5792    1.2668 C   0  0
   -0.0127    1.0858    0.0080 C   0  0
   -0.7527    1.5927   -1.2315 C   0  0  1  0  0  0
    0.0274    1.2082   -2.4987 C   0  0
   -0.6442    1.7866   -3.6584 N   0  0
   -1.9772    1.5770   -3.9428 C   0  0
   -2.8890    1.1440   -2.9951 C   0  0
   -4.2310    0.9699   -3.3619 C   0  0
   -5.0556    0.5933   -2.5430 O   0  0
   -4.5956    1.2262   -4.6358 N   0  0
   -3.6628    1.6400   -5.5364 C   0  0
   -2.4053    1.8064   -5.1980 N   0  0
   -4.0461    1.8893   -6.8301 N   0  0
   -2.3899    0.8072   -1.3378 S   0  0
    1.3637   -1.0685    5.7232 C   0  0
    2.2539   -0.7530    6.4909 O   0  0
    0.7103   -2.2351    5.8920 N   0  0
    1.0715   -3.1235    6.9995 C   0  0  1  0  0  0
   -0.1279   -4.0020    7.3606 C   0  0
   -1.2595   -3.1240    7.8986 C   0  0
   -2.4409   -3.9893    8.2544 C   0  0
   -2.3837   -5.1855    8.0940 O   0  0
    2.2277   -3.9971    6.5860 C   0  0
    2.7014   -3.8888    5.4797 O   0  0
   -3.5568   -3.4312    8.7493 O   0  5
    2.7314   -4.8956    7.4467 O   0  5
    1.4091    2.6485    2.8384 H   0  0
    2.3582    1.5021    4.8511 H   0  0
   -1.7606    1.1981    1.2742 H   0  0
   -0.7441    2.6791    1.2717 H   0  0
    1.0191    1.4669   -0.0002 H   0  0
    0.0025   -0.0141    0.0008 H   0  0
   -0.8510    2.6855   -1.1530 H   0  0
    1.0527    1.6011   -2.4334 H   0  0
    0.0543    0.1130   -2.5977 H   0  0
   -0.0953    2.3808   -4.2960 H   0  0
   -5.5770    1.1090   -4.9256 H   0  0
   -5.0269    1.7657   -7.1193 H   0  0
   -3.3454    2.2027   -7.5169 H   0  0
   -0.0431   -2.5021    5.2423 H   0  0
    1.3611   -2.5213    7.8733 H   0  0
   -0.4741   -4.5367    6.4638 H   0  0
    0.1679   -4.7300    8.1303 H   0  0
   -1.5575   -2.3960    7.1297 H   0  0
   -0.9140   -2.5892    8.7956 H   0  0
  1  5  2  0
  1  2  1  0
  2  3  2  0
  3  4  1  0
  3 20  1  0
  4  5  1  0
  5  6  1  0
  6  7  1  0
  7  8  1  0
  8 19  1  0
  8  9  1  0
  9 10  1  0
 10 11  1  0
 11 17  1  0
 11 12  2  0
 12 13  1  0
 12 19  1  0
 13 14  2  0
 13 15  1  0
 15 16  1  0
 16 17  2  0
 16 18  1  0
 20 21  2  0
 20 22  1  0
 22 23  1  0
 23 24  1  0
 23 28  1  0
 24 25  1  0
 25 26  1  0
 26 27  2  0
 26 30  1  0
 28 29  2  0
 28 31  1  0
  1 32  1  0
  2 33  1  0
  6 34  1  0
  6 35  1  0
  7 36  1  0
  7 37  1  0
  8 38  1  0
  9 39  1  0
  9 40  1  0
 10 41  1  0
 15 42  1  0
 18 43  1  0
 18 44  1  0
 22 45  1  0
 23 46  1  0
 24 47  1  0
 24 48  1  0
 25 49  1  0
 25 50  1  0
M  CHG  2  30  -1  31  -1
M  END
> <Name>
ZINC03806987

> <reference>
BDB50021151

> <quality>
0.726

> <status>
decoy

$$$$
ZINC04962363
  SciTegic06061311253D

 51 51  0  0  1  0            999 V2000
    2.4071    9.4495    4.4013 C   0  0
    2.9657   10.6657    4.7301 C   0  0
    4.3253   10.7627    4.9795 C   0  0
    5.1318    9.6383    4.9068 C   0  0
    4.5860    8.4143    4.5853 C   0  0
    3.2142    8.3089    4.3317 C   0  0
    2.6244    7.0062    3.9874 C   0  0
    3.3275    6.0203    3.9229 O   0  0
    1.1463    6.8966    3.7149 C   0  0
    0.7298    5.1754    3.3220 S   0  0
   -1.0592    5.2138    3.0241 C   0  0
   -1.5488    3.8063    2.6774 C   0  0  1  0  0  0
   -3.0350    3.8382    2.4299 C   0  0
   -3.4778    3.4997    1.3528 O   0  0
   -3.8721    4.2430    3.4056 N   0  0
   -5.3169    4.2740    3.1650 C   0  0
   -6.0222    4.7600    4.4049 C   0  0
   -5.3836    5.0507    5.3886 O   0  0
   -0.8631    3.3339    1.4720 N   0  0
   -0.7240    2.0118    1.2503 C   0  0
   -1.1666    1.2132    2.0486 O   0  0
   -0.0187    1.5258    0.0104 C   0  0
    0.0021   -0.0041    0.0020 C   0  0
    0.7182   -0.4975   -1.2568 C   0  0  1  0  0  0
    0.8473   -1.9981   -1.2057 C   0  0
    0.0764   -2.6922   -1.8252 O   0  0
    5.0214   12.3002    5.3858 Cl  0  0
   -7.3600    4.8700    4.4165 O   0  5
    1.8187   -2.5636   -0.4720 O   0  5
   -0.0577   -0.0877   -2.4406 N   0  3
    1.3293    9.3758    4.1941 H   0  0
    2.3307   11.5616    4.7947 H   0  0
    6.2103    9.7228    5.1062 H   0  0
    5.2274    7.5225    4.5282 H   0  0
    0.5845    7.2150    4.6054 H   0  0
    0.8804    7.5408    2.8638 H   0  0
   -1.5742    5.5680    3.9292 H   0  0
   -1.2782    5.8938    2.1877 H   0  0
   -1.3309    3.1259    3.5138 H   0  0
   -3.4960    4.5305    4.3204 H   0  0
   -5.6701    3.2625    2.9159 H   0  0
   -5.5350    4.9549    2.3290 H   0  0
   -0.4873    4.0121    0.7940 H   0  0
   -0.5510    1.8896   -0.8808 H   0  0
    1.0135    1.9058    0.0016 H   0  0
   -1.0295   -0.3860    0.0096 H   0  0
    0.5346   -0.3686    0.8928 H   0  0
    1.7255   -0.0596   -1.3159 H   0  0
   -0.1322    0.9392   -2.4698 H   0  0
   -1.0003   -0.5008   -2.3992 H   0  0
    0.4203   -0.4176   -3.2912 H   0  0
  1  6  2  0
  1  2  1  0
  2  3  2  0
  3  4  1  0
  3 27  1  0
  4  5  2  0
  5  6  1  0
  6  7  1  0
  7  8  2  0
  7  9  1  0
  9 10  1  0
 10 11  1  0
 11 12  1  0
 12 13  1  0
 12 19  1  0
 13 14  2  0
 13 15  1  0
 15 16  1  0
 16 17  1  0
 17 18  2  0
 17 28  1  0
 19 20  1  0
 20 21  2  0
 20 22  1  0
 22 23  1  0
 23 24  1  0
 24 25  1  0
 24 30  1  0
 25 26  2  0
 25 29  1  0
  1 31  1  0
  2 32  1  0
  4 33  1  0
  5 34  1  0
  9 35  1  0
  9 36  1  0
 11 37  1  0
 11 38  1  0
 12 39  1  0
 15 40  1  0
 16 41  1  0
 16 42  1  0
 19 43  1  0
 22 44  1  0
 22 45  1  0
 23 46  1  0
 23 47  1  0
 24 48  1  0
 30 49  1  0
 30 50  1  0
 30 51  1  0
M  CHG  3  28  -1  29  -1  30   1
M  END
> <Name>
ZINC04962363

> <reference>
BDB50021151

> <quality>
0.725

> <status>
decoy

$$$$
ZINC03442723
  SciTegic06061311253D

 58 59  0  0  0  0            999 V2000
   -5.8170   17.8501    1.7698 C   0  0
   -6.4401   16.4701    1.9896 C   0  0  1  0  0  0
   -7.6256   16.5927    2.9489 C   0  0
   -6.9234   15.9097    0.6505 C   0  0
   -7.4108   14.5413    0.8411 N   0  0
   -6.5398   13.4970    0.7147 C   0  0
   -7.0182   12.1873    0.8933 C   0  0
   -8.4393   12.0144    1.2209 C   0  0
   -8.9068   10.9037    1.3917 O   0  0
   -9.2156   13.1123    1.3290 N   0  0
   -8.7032   14.3394    1.1416 C   0  0
   -9.4367   15.3027    1.2486 O   0  0
  -10.6361   12.9641    1.6554 C   0  0
   -6.1592   11.0748    0.7676 C   0  0
   -4.9681   11.2431    0.5998 O   0  0
   -6.7198    9.6779    0.8415 C   0  0
   -5.6436    8.7156    0.6857 O   0  0
   -5.9772    7.4161    0.7279 C   0  0
   -7.1303    7.0934    0.8898 O   0  0
   -4.9136    6.3597    0.5735 C   0  0
   -5.6746    4.7162    0.6748 S   0  0
   -4.3200    3.6065    0.4790 C   0  0
   -4.5365    2.2342    0.5044 C   0  0
   -3.4751    1.3652    0.3505 C   0  0
   -2.1911    1.8623    0.1699 C   0  0
   -1.9735    3.2336    0.1497 C   0  0
   -3.0350    4.1034    0.2987 C   0  0
   -1.1137    0.9796    0.0137 N   0  0
   -1.2858   -0.1839   -0.6443 C   0  0
   -2.3889   -0.5019   -1.0357 O   0  0
   -0.1076   -1.0898   -0.8938 C   0  0
   -5.2314   13.7203    0.4158 N   0  0
   -5.4689   18.2538    2.7320 H   0  0
   -6.5681   18.5282    1.3385 H   0  0
   -4.9645   17.7627    1.0801 H   0  0
   -5.6882   15.7927    2.4207 H   0  0
   -8.3783   17.2697    2.5186 H   0  0
   -7.2791   16.9953    3.9121 H   0  0
   -8.0741   15.6008    3.1074 H   0  0
   -6.0906   15.9048   -0.0682 H   0  0
   -7.7387   16.5381    0.2627 H   0  0
  -10.6591   12.4066    2.6034 H   0  0
  -11.0452   12.3037    0.8766 H   0  0
  -11.1774   13.9195    1.7195 H   0  0
   -7.2059    9.5289    1.8170 H   0  0
   -7.4577    9.5348    0.0384 H   0  0
   -4.4207    6.4753   -0.4031 H   0  0
   -4.1685    6.4679    1.3755 H   0  0
   -5.5536    1.8404    0.6471 H   0  0
   -3.6464    0.2788    0.3709 H   0  0
   -0.9551    3.6269    0.0149 H   0  0
   -2.8636    5.1897    0.2747 H   0  0
   -0.1904    1.2201    0.4018 H   0  0
    0.3135   -1.2942    0.1016 H   0  0
    0.6216   -0.4700   -1.4362 H   0  0
   -0.3643   -2.0103   -1.4385 H   0  0
   -4.8970   14.6856    0.2842 H   0  0
   -4.5781   12.9296    0.3214 H   0  0
  1  2  1  0
  2  3  1  0
  2  4  1  0
  4  5  1  0
  5 11  1  0
  5  6  1  0
  6  7  2  0
  6 32  1  0
  7  8  1  0
  7 14  1  0
  8  9  2  0
  8 10  1  0
 10 11  1  0
 10 13  1  0
 11 12  2  0
 14 15  2  0
 14 16  1  0
 16 17  1  0
 17 18  1  0
 18 19  2  0
 18 20  1  0
 20 21  1  0
 21 22  1  0
 22 27  2  0
 22 23  1  0
 23 24  2  0
 24 25  1  0
 25 26  2  0
 25 28  1  0
 26 27  1  0
 28 29  1  0
 29 30  2  0
 29 31  1  0
  1 33  1  0
  1 34  1  0
  1 35  1  0
  2 36  1  0
  3 37  1  0
  3 38  1  0
  3 39  1  0
  4 40  1  0
  4 41  1  0
 13 42  1  0
 13 43  1  0
 13 44  1  0
 16 45  1  0
 16 46  1  0
 20 47  1  0
 20 48  1  0
 23 49  1  0
 24 50  1  0
 26 51  1  0
 27 52  1  0
 28 53  1  0
 31 54  1  0
 31 55  1  0
 31 56  1  0
 32 57  1  0
 32 58  1  0
M  END
> <Name>
ZINC03442723

> <reference>
BDB50021151

> <quality>
0.717

> <status>
decoy

$$$$
ZINC28751048
  SciTegic06061311253D

 68 70  0  0  1  0            999 V2000
   -3.9967    3.1318    4.4082 C   0  0
   -2.8041    2.1971    4.6203 C   0  0
   -1.8855    2.3434    3.5355 O   0  0
   -0.7616    1.5772    3.5702 C   0  0
   -0.5528    0.7007    4.6227 C   0  0
    0.5909   -0.0739    4.6621 C   0  0
    1.5305    0.0202    3.6443 C   0  0
    1.3217    0.8931    2.5854 C   0  0
    0.1755    1.6697    2.5456 C   0  0
   -0.0313    2.5255    1.5092 O   0  0
    0.9753    2.5726    0.4960 C   0  0
    0.5707    3.5841   -0.5782 C   0  0
    2.6898   -0.7657    3.6861 N   0  0
    3.2741   -1.0423    4.8688 C   0  0
    2.7502   -0.6815    5.9045 O   0  0
    4.4392   -1.7188    4.9029 N   0  0
    5.0235   -1.9954    6.0855 C   0  0
    4.5010   -1.6356    7.1186 O   0  0
    6.3263   -2.7519    6.1236 C   0  0
    6.7516   -2.9245    7.5190 N   0  0
    7.0841   -1.6310    8.1321 C   0  0
    7.4447   -1.8448    9.6041 C   0  0
    8.5781   -2.7756    9.6979 N   0  0
    8.2456   -4.0691    9.0848 C   0  0
    7.8850   -3.8554    7.6128 C   0  0
    9.0034   -2.9482   11.0933 C   0  0  2  0  0  0
    7.8316   -3.4786   11.9218 C   0  0
    9.4520   -1.6213   11.6495 C   0  0
    9.4204   -0.6296   10.9521 O   0  0
    9.8882   -1.5368   12.9219 N   0  0
   10.3242   -0.2470   13.4626 C   0  0  2  0  0  0
   11.6081   -0.2274   14.2947 C   0  0
   10.2496   -0.0549   14.9787 C   0  0
   -4.5010    2.8762    3.4646 H   0  0
   -3.6446    4.1730    4.3647 H   0  0
   -4.7043    3.0197    5.2429 H   0  0
   -2.3003    2.4537    5.5639 H   0  0
   -3.1561    1.1559    4.6639 H   0  0
   -1.2982    0.6213    5.4278 H   0  0
    0.7571   -0.7659    5.5009 H   0  0
    2.0658    0.9680    1.7787 H   0  0
    1.9326    2.8774    0.9439 H   0  0
    1.0843    1.5778    0.0393 H   0  0
    0.4623    4.5798   -0.1235 H   0  0
   -0.3865    3.2806   -1.0272 H   0  0
    1.3452    3.6209   -1.3585 H   0  0
    3.0954   -1.1320    2.8131 H   0  0
    4.8831   -2.0244    4.0252 H   0  0
    7.0948   -2.1888    5.5738 H   0  0
    6.1911   -3.7389    5.6573 H   0  0
    6.2179   -0.9567    8.0615 H   0  0
    7.9410   -1.1849    7.6061 H   0  0
    7.7228   -0.8819   10.0575 H   0  0
    6.5798   -2.2660   10.1375 H   0  0
    9.1125   -4.7425    9.1556 H   0  0
    7.3890   -4.5162    9.6104 H   0  0
    7.6073   -4.8187    7.1600 H   0  0
    8.7513   -3.4353    7.0808 H   0  0
    9.8370   -3.6646   11.1366 H   0  0
    7.5036   -4.4473   11.5167 H   0  0
    6.9975   -2.7627   11.8793 H   0  0
    8.1494   -3.6081   12.9669 H   0  0
    9.9150   -2.3791   13.5141 H   0  0
    9.9547    0.3094   12.5886 H   0  0
   12.1358    0.7331   14.2002 H   0  0
   12.0077   -1.2414   14.4433 H   0  0
    9.9353   -0.9780   15.4877 H   0  0
   10.0627    0.9964   15.2431 H   0  0
  1  2  1  0
  2  3  1  0
  3  4  1  0
  4  9  2  0
  4  5  1  0
  5  6  2  0
  6  7  1  0
  7  8  2  0
  7 13  1  0
  8  9  1  0
  9 10  1  0
 10 11  1  0
 11 12  1  0
 13 14  1  0
 14 15  2  0
 14 16  1  0
 16 17  1  0
 17 18  2  0
 17 19  1  0
 19 20  1  0
 20 25  1  0
 20 21  1  0
 21 22  1  0
 22 23  1  0
 23 24  1  0
 23 26  1  0
 24 25  1  0
 26 27  1  0
 26 28  1  0
 28 29  2  0
 28 30  1  0
 30 31  1  0
 31 33  1  0
 31 32  1  0
 32 33  1  0
  1 34  1  0
  1 35  1  0
  1 36  1  0
  2 37  1  0
  2 38  1  0
  5 39  1  0
  6 40  1  0
  8 41  1  0
 11 42  1  0
 11 43  1  0
 12 44  1  0
 12 45  1  0
 12 46  1  0
 13 47  1  0
 16 48  1  0
 19 49  1  0
 19 50  1  0
 21 51  1  0
 21 52  1  0
 22 53  1  0
 22 54  1  0
 24 55  1  0
 24 56  1  0
 25 57  1  0
 25 58  1  0
 26 59  1  0
 27 60  1  0
 27 61  1  0
 27 62  1  0
 30 63  1  0
 31 64  1  0
 32 65  1  0
 32 66  1  0
 33 67  1  0
 33 68  1  0
M  END
> <Name>
ZINC28751048

> <reference>
BDB50021151

> <quality>
0.717

> <status>
decoy

$$$$
ZINC09382042
  SciTegic06061311253D

 51 53  0  0  0  0            999 V2000
   -5.6489    8.1828   13.9434 C   0  0
   -5.0409    8.3011   12.5444 C   0  0
   -5.3846    7.1245   11.7661 O   0  0
   -4.9247    7.0715   10.5062 C   0  0
   -4.2569    7.9783   10.0682 O   0  0
   -5.2411    5.8811    9.6380 C   0  0
   -4.6297    6.0623    8.3190 N   0  0
   -4.7806    5.1167    7.3706 C   0  0
   -5.4226    4.1157    7.6091 O   0  0
   -4.1516    5.3031    6.0139 C   0  0
   -4.5317    3.8733    4.9711 S   0  0
   -3.6990    4.3438    3.4913 C   0  0
   -3.0165    5.4485    3.2967 N   0  0
   -2.5430    5.4658    2.1022 N   0  0
   -2.8907    4.3830    1.4659 C   0  0
   -3.6455    3.6301    2.3257 N   0  0
   -4.2380    2.3849    2.0660 C   0  0
   -5.2472    2.2797    1.1188 C   0  0
   -5.8263    1.0525    0.8613 C   0  0
   -5.4075   -0.0707    1.5546 C   0  0
   -4.4042    0.0333    2.5033 C   0  0
   -3.8195    1.2580    2.7599 C   0  0
   -5.9789   -1.2693    1.3055 F   0  0
   -2.5339    4.0280    0.0455 C   0  0
   -1.2364    3.2615    0.0300 C   0  0
   -1.2463    1.9114    0.0183 C   0  0
   -0.0144    1.2136    0.0087 C   0  0
    0.0021   -0.0041    0.0020 O   0  0
    1.1403    1.9098    0.0014 N   0  0
    1.1210    3.2556    0.0088 C   0  0
    2.1701    3.8701    0.0025 O   0  0
   -0.0428    3.9305    0.0226 N   0  0
   -5.2527    7.2858   14.4418 H   0  0
   -6.7431    8.1038   13.8632 H   0  0
   -5.3889    9.0739   14.5335 H   0  0
   -5.4378    9.1981   12.0466 H   0  0
   -3.9467    8.3801   12.6244 H   0  0
   -4.8403    4.9695   10.1052 H   0  0
   -6.3313    5.7869    9.5261 H   0  0
   -4.0845    6.9124    8.1165 H   0  0
   -4.5522    6.2144    5.5458 H   0  0
   -3.0611    5.3962    6.1237 H   0  0
   -5.5855    3.1732    0.5736 H   0  0
   -6.6206    0.9673    0.1051 H   0  0
   -4.0727   -0.8600    3.0529 H   0  0
   -3.0226    1.3403    3.5137 H   0  0
   -3.3312    3.4069   -0.3887 H   0  0
   -2.4223    4.9483   -0.5467 H   0  0
   -2.1987    1.3610    0.0163 H   0  0
    2.0407    1.4098   -0.0099 H   0  0
   -0.0352    4.9605    0.0276 H   0  0
  1  2  1  0
  2  3  1  0
  3  4  1  0
  4  5  2  0
  4  6  1  0
  6  7  1  0
  7  8  1  0
  8  9  2  0
  8 10  1  0
 10 11  1  0
 11 12  1  0
 12 16  1  0
 12 13  2  0
 13 14  1  0
 14 15  2  0
 15 16  1  0
 15 24  1  0
 16 17  1  0
 17 22  2  0
 17 18  1  0
 18 19  2  0
 19 20  1  0
 20 21  2  0
 20 23  1  0
 21 22  1  0
 24 25  1  0
 25 32  1  0
 25 26  2  0
 26 27  1  0
 27 28  2  0
 27 29  1  0
 29 30  1  0
 30 31  2  0
 30 32  1  0
  1 33  1  0
  1 34  1  0
  1 35  1  0
  2 36  1  0
  2 37  1  0
  6 38  1  0
  6 39  1  0
  7 40  1  0
 10 41  1  0
 10 42  1  0
 18 43  1  0
 19 44  1  0
 21 45  1  0
 22 46  1  0
 24 47  1  0
 24 48  1  0
 26 49  1  0
 29 50  1  0
 32 51  1  0
M  END
> <Name>
ZINC09382042

> <reference>
BDB50021151

> <quality>
0.716

> <status>
decoy

$$$$
ZINC30632960
  SciTegic06061311253D

 54 55  0  0  1  0            999 V2000
   -4.7407   -3.1488    0.8075 C   0  0
   -3.3794   -2.4718    0.9794 C   0  0  1  0  0  0
   -2.7132   -2.9834    2.2582 C   0  0
   -2.4921   -2.7981   -0.2236 C   0  0  1  0  0  0
   -1.2203   -1.9937   -0.1425 C   0  0
   -0.2243   -2.4816    0.3485 O   0  0
   -1.1896   -0.7321   -0.6158 N   0  0
    0.0229   -0.0335   -0.6686 C   0  0
    1.0132   -0.2875    0.2711 C   0  0
    2.2083    0.4022    0.2170 C   0  0
    2.4198    1.3464   -0.7740 C   0  0
    1.4335    1.6014   -1.7116 C   0  0
    0.2366    0.9136   -1.6609 C   0  0
    1.6619    2.6113   -2.7694 N   0  0
    0.7947    2.8356   -3.5947 O   0  0
    2.7171    3.2179   -2.8145 O   0  0
    3.5899    2.0198   -0.8256 F   0  0
   -2.1704   -4.2140   -0.2178 O   0  0
   -3.0090   -5.0321   -0.8728 C   0  0
   -3.9798   -4.5801   -1.4325 O   0  0
   -2.7398   -6.5144   -0.9102 C   0  0
   -3.7915   -7.1825   -1.6809 N   0  0
   -3.7579   -8.5193   -1.8490 C   0  0
   -2.8570   -9.1692   -1.3622 O   0  0
   -4.8397   -9.2065   -2.6417 C   0  0
   -4.5780  -10.6475   -2.6781 N   0  0
   -5.4201  -11.4689   -3.3358 C   0  0
   -6.3978  -11.0136   -3.8995 O   0  0
   -5.1581  -12.9114   -3.3721 C   0  0
   -5.9258  -13.8508   -3.9988 C   0  0
   -5.3067  -15.0909   -3.7776 C   0  0
   -4.2022  -14.8572   -3.0349 C   0  0
   -4.1132  -13.5422   -2.7972 O   0  0
   -5.3796   -2.9146    1.6718 H   0  0
   -4.6035   -4.2380    0.7381 H   0  0
   -5.2202   -2.7814   -0.1118 H   0  0
   -3.5176   -1.3827    1.0485 H   0  0
   -2.5743   -4.0725    2.1901 H   0  0
   -3.3503   -2.7491    3.1238 H   0  0
   -1.7344   -2.4970    2.3824 H   0  0
   -3.0261   -2.5472   -1.1520 H   0  0
   -2.0579   -0.2819   -0.9386 H   0  0
    0.8458   -1.0376    1.0581 H   0  0
    2.9929    0.2016    0.9615 H   0  0
   -0.5466    1.1162   -2.4062 H   0  0
   -1.7648   -6.6983   -1.3852 H   0  0
   -2.7289   -6.9122    0.1153 H   0  0
   -4.5566   -6.6305   -2.0943 H   0  0
   -5.8149   -9.0234   -2.1669 H   0  0
   -4.8514   -8.8107   -3.6680 H   0  0
   -3.7505  -11.0329   -2.2011 H   0  0
   -6.8503  -13.6706   -4.5669 H   0  0
   -5.6551  -16.0691   -4.1406 H   0  0
   -3.4931  -15.6212   -2.6835 H   0  0
  1  2  1  0
  2  3  1  0
  2  4  1  0
  4  5  1  0
  4 18  1  0
  5  6  2  0
  5  7  1  0
  7  8  1  0
  8 13  2  0
  8  9  1  0
  9 10  2  0
 10 11  1  0
 11 12  2  0
 11 17  1  0
 12 13  1  0
 12 14  1  0
 14 15  2  0
 14 16  2  0
 18 19  1  0
 19 20  2  0
 19 21  1  0
 21 22  1  0
 22 23  1  0
 23 24  2  0
 23 25  1  0
 25 26  1  0
 26 27  1  0
 27 28  2  0
 27 29  1  0
 29 33  1  0
 29 30  2  0
 30 31  1  0
 31 32  2  0
 32 33  1  0
  1 34  1  0
  1 35  1  0
  1 36  1  0
  2 37  1  0
  3 38  1  0
  3 39  1  0
  3 40  1  0
  4 41  1  0
  7 42  1  0
  9 43  1  0
 10 44  1  0
 13 45  1  0
 21 46  1  0
 21 47  1  0
 22 48  1  0
 25 49  1  0
 25 50  1  0
 26 51  1  0
 30 52  1  0
 31 53  1  0
 32 54  1  0
M  END
> <Name>
ZINC30632960

> <reference>
BDB50021151

> <quality>
0.712

> <status>
decoy

$$$$
ZINC22300448
  SciTegic06061311253D

 65 66  0  0  1  0            999 V2000
   -5.7917   -2.6809    1.2519 C   0  0
   -5.2066   -1.3215    0.8639 C   0  0
   -4.0444   -1.5256   -0.1099 C   0  0
   -3.4593   -0.1662   -0.4979 C   0  0
   -2.2971   -0.3703   -1.4718 C   0  0
   -1.7369    0.9314   -1.8433 N   0  0
   -0.7416    1.5850   -1.2129 C   0  0
   -0.4997    2.7164   -1.8245 N   0  0
   -1.3222    2.8516   -2.8679 C   0  0
   -2.1307    1.7225   -2.9039 C   0  0
   -3.1027    1.6047   -3.9206 C   0  0
   -3.8238    0.6245   -3.9731 O   0  0
   -3.2241    2.5909   -4.8335 N   0  0
   -2.4350    3.6781   -4.7868 C   0  0
   -2.5727    4.5468   -5.6265 O   0  0
   -1.4959    3.8295   -3.8340 N   0  0
   -0.6567    5.0302   -3.8184 C   0  0
    0.5993    4.7855   -4.6571 C   0  0
    1.4757    6.0396   -4.6408 C   0  0
    2.7317    5.7949   -5.4795 C   0  0
   -0.0127    1.0858    0.0080 C   0  0
   -0.7288    1.5792    1.2668 C   0  0
    0.0000    1.0800    2.4877 C   0  0
    0.9906    0.3994    2.3637 O   0  0
   -0.4513    1.3915    3.7129 O   0  0
    0.3008    0.8762    4.8431 C   0  0  2  0  0  0
   -0.2518   -0.4937    5.2414 C   0  0
    0.1742    1.8264    6.0059 C   0  0
   -0.5566    2.7903    5.9242 O   0  0
    0.8733    1.6047    7.1366 N   0  0
    0.7601    2.4545    8.1765 C   0  0
    0.0275    3.4208    8.0947 O   0  0
    1.4593    2.2327    9.3072 N   0  0
   -5.0140   -3.2921    1.7332 H   0  0
   -6.1558   -3.1954    0.3503 H   0  0
   -6.6274   -2.5348    1.9521 H   0  0
   -5.9848   -0.7112    0.3824 H   0  0
   -4.8425   -0.8070    1.7654 H   0  0
   -3.2656   -2.1356    0.3712 H   0  0
   -4.4068   -2.0391   -1.0127 H   0  0
   -4.2375    0.4442   -0.9794 H   0  0
   -3.0952    0.3483    0.4036 H   0  0
   -1.5183   -0.9803   -0.9908 H   0  0
   -2.6596   -0.8838   -2.3745 H   0  0
   -3.9320    2.5094   -5.5772 H   0  0
   -1.2192    5.8764   -4.2398 H   0  0
   -0.3660    5.2623   -2.7832 H   0  0
    1.1626    3.9397   -4.2360 H   0  0
    0.3105    4.5543   -5.6930 H   0  0
    0.9132    6.8857   -5.0622 H   0  0
    1.7664    6.2717   -3.6056 H   0  0
    2.4429    5.5638   -6.5154 H   0  0
    3.2955    4.9490   -5.0592 H   0  0
    3.3623    6.6961   -5.4682 H   0  0
    0.0018   -0.0141    0.0024 H   0  0
    1.0194    1.4662    0.0013 H   0  0
   -1.7609    1.1988    1.2757 H   0  0
   -0.7433    2.6791    1.2733 H   0  0
    1.3602    0.7772    4.5641 H   0  0
   -0.1596   -1.1881    4.3933 H   0  0
   -1.3112   -0.3958    5.5209 H   0  0
    0.3175   -0.8847    6.0976 H   0  0
    1.4941    0.7858    7.2060 H   0  0
    2.0801    1.4138    9.3766 H   0  0
    1.3728    2.8822   10.1020 H   0  0
  1  2  1  0
  2  3  1  0
  3  4  1  0
  4  5  1  0
  5  6  1  0
  6 10  1  0
  6  7  1  0
  7  8  2  0
  7 21  1  0
  8  9  1  0
  9 16  1  0
  9 10  2  0
 10 11  1  0
 11 12  2  0
 11 13  1  0
 13 14  1  0
 14 15  2  0
 14 16  1  0
 16 17  1  0
 17 18  1  0
 18 19  1  0
 19 20  1  0
 21 22  1  0
 22 23  1  0
 23 24  2  0
 23 25  1  0
 25 26  1  0
 26 27  1  0
 26 28  1  0
 28 29  2  0
 28 30  1  0
 30 31  1  0
 31 32  2  0
 31 33  1  0
  1 34  1  0
  1 35  1  0
  1 36  1  0
  2 37  1  0
  2 38  1  0
  3 39  1  0
  3 40  1  0
  4 41  1  0
  4 42  1  0
  5 43  1  0
  5 44  1  0
 13 45  1  0
 17 46  1  0
 17 47  1  0
 18 48  1  0
 18 49  1  0
 19 50  1  0
 19 51  1  0
 20 52  1  0
 20 53  1  0
 20 54  1  0
 21 55  1  0
 21 56  1  0
 22 57  1  0
 22 58  1  0
 26 59  1  0
 27 60  1  0
 27 61  1  0
 27 62  1  0
 30 63  1  0
 33 64  1  0
 33 65  1  0
M  END
> <Name>
ZINC22300448

> <reference>
BDB50021151

> <quality>
0.709

> <status>
decoy

$$$$
ZINC26559691
  SciTegic06061311253D

 47 48  0  0  0  0            999 V2000
   -5.4779    2.2797    4.7651 C   0  0
   -3.9679    2.4536    4.9398 C   0  0
   -3.4001    3.0049    3.7225 O   0  0
   -2.0686    3.2210    3.7109 C   0  0
   -1.4008    2.9554    4.6923 O   0  0
   -1.4274    3.7750    2.5175 C   0  0
   -0.8598    3.0259    1.3706 C   0  0
   -0.3745    3.9729    0.5185 C   0  0
   -0.6014    5.1870    1.0323 O   0  0
   -1.2207    5.1094    2.2180 C   0  0
   -1.5909    6.1807    3.0072 N   0  0
   -1.3311    7.4390    2.6003 C   0  0
   -0.7724    7.6306    1.5412 O   0  0
   -1.7349    8.6079    3.4614 C   0  0
   -1.2517   10.1548    2.6464 S   0  0
   -1.7852   11.4095    3.7627 C   0  0
   -2.3950   11.2889    4.9262 N   0  0
   -2.7262   12.4141    5.6452 N   0  0
   -2.4322   13.6082    5.1677 C   0  0
   -1.6376   13.1843    3.6250 S   0  0
   -2.7354   15.1964    5.8679 S   0  0
   -3.5666   14.8321    7.4386 C   0  0
   -3.8864   16.1222    8.1488 C   0  0
   -3.5834   17.1830    7.6449 O   0  0
   -4.5091   16.0971    9.3438 N   0  0
    0.3076    3.6957   -0.7964 C   0  0
   -0.8227    1.5731    1.1933 C   0  0
    0.1135    0.9329    1.6248 O   0  0
   -1.9472    0.8727    0.4750 C   0  0
   -5.6746    1.5952    3.9268 H   0  0
   -5.9387    3.2564    4.5560 H   0  0
   -5.9087    1.8620    5.6870 H   0  0
   -3.7721    3.1385    5.7780 H   0  0
   -3.5070    1.4770    5.1489 H   0  0
   -2.0655    6.0180    3.9067 H   0  0
   -2.8250    8.5963    3.6079 H   0  0
   -1.2329    8.5364    4.4376 H   0  0
   -2.9063   14.2203    8.0708 H   0  0
   -4.4985   14.2819    7.2414 H   0  0
   -4.7664   15.1962    9.7717 H   0  0
   -4.7277   16.9789    9.8292 H   0  0
   -0.4294    3.0764   -1.3286 H   0  0
    1.1243    3.0167   -0.5100 H   0  0
    0.6405    4.5772   -1.3639 H   0  0
   -2.0042    1.3641   -0.5075 H   0  0
   -2.8550    1.1549    1.0284 H   0  0
   -1.8215   -0.2173    0.3962 H   0  0
  1  2  1  0
  2  3  1  0
  3  4  1  0
  4  5  2  0
  4  6  1  0
  6 10  2  0
  6  7  1  0
  7  8  2  0
  7 27  1  0
  8  9  1  0
  8 26  1  0
  9 10  1  0
 10 11  1  0
 11 12  1  0
 12 13  2  0
 12 14  1  0
 14 15  1  0
 15 16  1  0
 16 20  1  0
 16 17  2  0
 17 18  1  0
 18 19  2  0
 19 20  1  0
 19 21  1  0
 21 22  1  0
 22 23  1  0
 23 24  2  0
 23 25  1  0
 27 28  2  0
 27 29  1  0
  1 30  1  0
  1 31  1  0
  1 32  1  0
  2 33  1  0
  2 34  1  0
 11 35  1  0
 14 36  1  0
 14 37  1  0
 22 38  1  0
 22 39  1  0
 25 40  1  0
 25 41  1  0
 26 42  1  0
 26 43  1  0
 26 44  1  0
 29 45  1  0
 29 46  1  0
 29 47  1  0
M  END
> <Name>
ZINC26559691

> <reference>
BDB50021151

> <quality>
0.709

> <status>
decoy

$$$$
ZINC11606810
  SciTegic06061311253D

 66 67  0  0  1  0            999 V2000
    0.3383    7.1351    8.8210 C   0  0
    1.3136    6.6240    7.7588 C   0  0
    0.6381    6.6605    6.3865 C   0  0
    1.6134    6.1494    5.3242 C   0  0
    0.9379    6.1859    3.9519 C   0  0
    1.8744    5.6952    2.9319 N   0  0
    1.1932    5.4911    1.6465 C   0  0
    0.1913    4.3734    1.7807 C   0  0
    0.0578    3.8030    2.8427 O   0  0
   -0.5564    4.0078    0.7207 N   0  0
   -1.5303    2.9212    0.8512 C   0  0  2  0  0  0
   -0.8023    1.6173    1.2285 C   0  0
   -0.0127    1.0858    0.0080 C   0  0
   -0.9784    1.7328   -1.4173 S   0  0
   -0.1626    2.6284   -2.1600 O   0  0
   -1.6071    0.6452   -2.0815 O   0  0
   -2.2555    2.6998   -0.5069 C   0  0
   -2.5543    3.2724    1.9325 C   0  0
    2.9739    6.5730    2.7891 C   0  0
    4.2488    6.1326    3.0203 C   0  0
    5.3017    7.0070    2.8744 N   0  0
    5.0810    8.2827    2.5077 C   0  0
    6.0234    9.0412    2.3832 O   0  0
    3.8343    8.7324    2.2769 N   0  0
    2.7740    7.9102    2.4018 C   0  0
    1.6475    8.3243    2.1849 O   0  0
    6.6705    6.5460    3.1194 C   0  0
    7.2682    6.0082    1.8177 C   0  0
    8.6978    5.5268    2.0736 C   0  0
    9.2955    4.9890    0.7718 C   0  0
    4.4758    4.8281    3.3955 N   0  0
   -0.5567    6.4957    8.8366 H   0  0
    0.0457    8.1688    8.5846 H   0  0
    0.8233    7.1091    9.8079 H   0  0
    2.2080    7.2641    7.7437 H   0  0
    1.6063    5.5903    7.9952 H   0  0
   -0.2563    6.0202    6.4008 H   0  0
    0.3456    7.6937    6.1479 H   0  0
    2.5079    6.7895    5.3091 H   0  0
    1.9061    5.1157    5.5606 H   0  0
    0.6454    7.2191    3.7133 H   0  0
    0.0436    5.5456    3.9662 H   0  0
    1.9330    5.2288    0.8758 H   0  0
    0.6733    6.4159    1.3560 H   0  0
   -0.4431    4.4923   -0.1811 H   0  0
   -0.1058    1.8136    2.0569 H   0  0
   -1.5390    0.8635    1.5431 H   0  0
   -0.0174   -0.0141   -0.0064 H   0  0
    1.0033    1.5070   -0.0073 H   0  0
   -2.4344    3.6580   -1.0167 H   0  0
   -3.1616    2.0909   -0.3718 H   0  0
   -3.0759    4.2002    1.6546 H   0  0
   -2.0372    3.4178    2.8924 H   0  0
   -3.2845    2.4554    2.0289 H   0  0
    3.6889    9.7144    2.0021 H   0  0
    7.2808    7.3858    3.4830 H   0  0
    6.6597    5.7465    3.8748 H   0  0
    6.6586    5.1680    1.4538 H   0  0
    7.2809    6.8068    1.0613 H   0  0
    9.3081    6.3666    2.4372 H   0  0
    8.6870    4.7273    2.8290 H   0  0
    9.3082    5.7876    0.0155 H   0  0
    8.6863    4.1489    0.4069 H   0  0
   10.3234    4.6427    0.9550 H   0  0
    3.6816    4.1811    3.5025 H   0  0
    5.4364    4.4992    3.5689 H   0  0
  1  2  1  0
  2  3  1  0
  3  4  1  0
  4  5  1  0
  5  6  1  0
  6  7  1  0
  6 19  1  0
  7  8  1  0
  8  9  2  0
  8 10  1  0
 10 11  1  0
 11 17  1  0
 11 12  1  0
 11 18  1  0
 12 13  1  0
 13 14  1  0
 14 15  2  0
 14 16  2  0
 14 17  1  0
 19 25  1  0
 19 20  2  0
 20 21  1  0
 20 31  1  0
 21 22  1  0
 21 27  1  0
 22 23  2  0
 22 24  1  0
 24 25  1  0
 25 26  2  0
 27 28  1  0
 28 29  1  0
 29 30  1  0
  1 32  1  0
  1 33  1  0
  1 34  1  0
  2 35  1  0
  2 36  1  0
  3 37  1  0
  3 38  1  0
  4 39  1  0
  4 40  1  0
  5 41  1  0
  5 42  1  0
  7 43  1  0
  7 44  1  0
 10 45  1  0
 12 46  1  0
 12 47  1  0
 13 48  1  0
 13 49  1  0
 17 50  1  0
 17 51  1  0
 18 52  1  0
 18 53  1  0
 18 54  1  0
 24 55  1  0
 27 56  1  0
 27 57  1  0
 28 58  1  0
 28 59  1  0
 29 60  1  0
 29 61  1  0
 30 62  1  0
 30 63  1  0
 30 64  1  0
 31 65  1  0
 31 66  1  0
M  END
> <Name>
ZINC11606810

> <reference>
BDB50021151

> <quality>
0.708

> <status>
decoy

$$$$
ZINC00628981
  SciTegic06061311253D

 64 66  0  0  1  0            999 V2000
   -4.2204    1.5842    0.1570 C   0  0
   -2.7174    1.5265    0.2493 C   0  0
   -1.9958    2.6402    0.0351 C   0  0
   -0.4961    2.6313    0.1247 C   0  0  2  0  0  0
    0.0312    1.2253    0.0786 C   0  0
   -0.7716    0.1683    0.2915 C   0  0
   -2.1050    0.3409    0.5451 N   0  0
   -0.1971   -1.2241    0.2442 C   0  0
    1.4017    1.0090   -0.1951 C   0  0
    1.8020    1.0218   -1.3442 O   0  0
    2.2655    0.7886    0.8180 O   0  0
    3.6424    0.6252    0.4725 C   0  0
    4.4657    0.4129    1.7446 C   0  0
    4.4087    1.6249    2.5726 N   0  0
    5.2117    2.7046    1.9818 C   0  0
    5.0626    3.9702    2.8295 C   0  0
    5.4950    3.6887    4.2056 N   0  3
    4.6920    2.6090    4.7964 C   0  0
    4.8411    1.3434    3.9487 C   0  0
    5.4381    4.9007    5.0336 C   0  0
   -0.0733    3.2777    1.4187 C   0  0
   -0.4298    2.7058    2.6259 C   0  0
   -0.0379    3.2959    3.8126 C   0  0
    0.7017    4.4639    3.7927 C   0  0
    1.0536    5.0385    2.5859 C   0  0
    0.6660    4.4453    1.3987 C   0  0
    1.8449    6.2892    2.5645 N   0  0
    2.1393    6.8055    1.5013 O   0  0
    2.2017    6.8021    3.6100 O   0  0
   -2.6627    3.8463   -0.2818 C   0  0
   -2.7226    4.2229   -1.4374 O   0  0
   -3.2328    4.5795    0.6973 O   0  0
   -3.8897    5.7865    0.3051 C   0  0
   -4.5848    1.2178    1.1281 H   0  0
   -4.4934    0.8339   -0.5997 H   0  0
   -4.6091    2.5842   -0.0857 H   0  0
   -0.0878    3.1892   -0.7309 H   0  0
   -2.6505   -0.4272    0.9614 H   0  0
    0.6146   -1.2289    0.9866 H   0  0
    0.2659   -1.3138   -0.7496 H   0  0
   -0.9403   -2.0130    0.4320 H   0  0
    3.7541   -0.2488   -0.1860 H   0  0
    4.0001    1.5253   -0.0489 H   0  0
    5.5113    0.2026    1.4752 H   0  0
    4.0547   -0.4365    2.3100 H   0  0
    4.8618    2.9059    0.9586 H   0  0
    6.2694    2.4035    1.9559 H   0  0
    5.6863    4.7712    2.4060 H   0  0
    4.0095    4.2880    2.8343 H   0  0
    6.4753    3.3744    4.1729 H   0  0
    5.0429    2.4082    5.8194 H   0  0
    3.6341    2.9093    4.8230 H   0  0
    4.2175    0.5427    4.3729 H   0  0
    5.8945    1.0265    3.9460 H   0  0
    4.4043    5.2765    5.0431 H   0  0
    6.0947    5.6645    4.5913 H   0  0
    5.7641    4.6752    6.0597 H   0  0
   -1.0254    1.7811    2.6419 H   0  0
   -0.3144    2.8363    4.7730 H   0  0
    1.0100    4.9358    4.7373 H   0  0
    0.9460    4.9026    0.4383 H   0  0
   -4.6559    5.4974   -0.4293 H   0  0
   -3.1352    6.3945   -0.2156 H   0  0
   -4.3285    6.3275    1.1565 H   0  0
  1  2  1  0
  2  7  1  0
  2  3  2  0
  3  4  1  0
  3 30  1  0
  4  5  1  0
  4 21  1  0
  5  6  2  0
  5  9  1  0
  6  7  1  0
  6  8  1  0
  9 10  2  0
  9 11  1  0
 11 12  1  0
 12 13  1  0
 13 14  1  0
 14 19  1  0
 14 15  1  0
 15 16  1  0
 16 17  1  0
 17 18  1  0
 17 20  1  0
 18 19  1  0
 21 26  2  0
 21 22  1  0
 22 23  2  0
 23 24  1  0
 24 25  2  0
 25 26  1  0
 25 27  1  0
 27 28  2  0
 27 29  2  0
 30 31  2  0
 30 32  1  0
 32 33  1  0
  1 34  1  0
  1 35  1  0
  1 36  1  0
  4 37  1  0
  7 38  1  0
  8 39  1  0
  8 40  1  0
  8 41  1  0
 12 42  1  0
 12 43  1  0
 13 44  1  0
 13 45  1  0
 15 46  1  0
 15 47  1  0
 16 48  1  0
 16 49  1  0
 17 50  1  0
 18 51  1  0
 18 52  1  0
 19 53  1  0
 19 54  1  0
 20 55  1  0
 20 56  1  0
 20 57  1  0
 22 58  1  0
 23 59  1  0
 24 60  1  0
 26 61  1  0
 33 62  1  0
 33 63  1  0
 33 64  1  0
M  CHG  1  17   1
M  END
> <Name>
ZINC00628981

> <reference>
BDB50020402

> <quality>
0.833

> <status>
decoy

$$$$
ZINC20911142
  SciTegic06061311253D

 60 62  0  0  0  0            999 V2000
    3.5193  -11.6010    4.3270 C   0  0
    1.9916  -11.5679    4.4049 C   0  0
    1.4118  -12.2253    3.1791 C   0  0
    1.1200  -13.4880    3.0465 N   0  0
    0.6446  -13.6950    1.8689 N   0  0
    0.6170  -12.5714    1.2102 C   0  0
    1.1059  -11.6176    2.0204 O   0  0
    0.1318  -12.3780   -0.2034 C   0  0
   -1.3004  -12.0699   -0.1903 N   0  0
   -2.2835  -13.1538   -0.2614 C   0  0  1  0  0  0
   -3.1527  -13.1373    0.9976 C   0  0
   -3.1683  -12.9597   -1.4945 C   0  0
   -1.7135  -10.7894   -0.1129 C   0  0
   -2.8952  -10.5390   -0.0045 O   0  0
   -0.7071   -9.6687   -0.1609 C   0  0
   -1.5747   -8.0758   -0.1449 S   0  0
   -0.2785   -6.8838   -0.2043 C   0  0
   -0.4353   -5.5266   -0.2120 N   0  0
    0.8070   -4.9580   -0.2640 C   0  0
    1.6935   -5.9235   -0.2931 N   0  0
    1.0062   -7.1436   -0.2496 N   0  0
    1.0812   -3.5984   -0.2878 N   0  0
    2.4081   -3.1522   -0.3417 N   0  0
    2.6646   -1.8803   -0.3640 C   0  0
    4.0627   -1.4101   -0.4208 C   0  0
    5.2174   -2.2210   -0.4562 C   0  0
    6.2620   -1.4389   -0.5033 N   0  0
    5.8304   -0.1075   -0.5002 N   0  0
    4.4828   -0.0982   -0.4496 C   0  0
    6.6950    1.0743   -0.5444 C   0  0  1  0  0  0
    6.8406    1.5458   -1.9926 C   0  0
    6.0743    2.1921    0.2959 C   0  0
    3.8535  -11.0605    3.4292 H   0  0
    3.8623  -12.6448    4.2747 H   0  0
    3.9432  -11.1213    5.2215 H   0  0
    1.6583  -12.1089    5.3028 H   0  0
    1.6485  -10.5241    4.4572 H   0  0
    0.6810  -11.5464   -0.6692 H   0  0
    0.3027  -13.2990   -0.7801 H   0  0
   -1.7607  -14.1189   -0.3334 H   0  0
   -3.6762  -12.1726    1.0704 H   0  0
   -2.5176  -13.2769    1.8848 H   0  0
   -3.8911  -13.9509    0.9449 H   0  0
   -2.5443  -12.9716   -2.4003 H   0  0
   -3.6918  -11.9949   -1.4232 H   0  0
   -3.9067  -13.7732   -1.5485 H   0  0
   -0.0441   -9.7332    0.7145 H   0  0
   -0.1092   -9.7504   -1.0806 H   0  0
    2.7157   -5.8057   -0.3397 H   0  0
    0.3092   -2.9169   -0.2658 H   0  0
    1.8401   -1.1525   -0.3406 H   0  0
    5.2344   -3.3208   -0.4459 H   0  0
    3.8378    0.7927   -0.4342 H   0  0
    7.6858    0.8190   -0.1405 H   0  0
    5.8503    1.8015   -2.3974 H   0  0
    7.2871    0.7429   -2.5976 H   0  0
    7.4897    2.4332   -2.0265 H   0  0
    5.9694    1.8541    1.3374 H   0  0
    5.0835    2.4483   -0.1073 H   0  0
    6.7231    3.0798    0.2631 H   0  0
  1  2  1  0
  2  3  1  0
  3  7  1  0
  3  4  2  0
  4  5  1  0
  5  6  2  0
  6  7  1  0
  6  8  1  0
  8  9  1  0
  9 10  1  0
  9 13  1  0
 10 11  1  0
 10 12  1  0
 13 14  2  0
 13 15  1  0
 15 16  1  0
 16 17  1  0
 17 21  2  0
 17 18  1  0
 18 19  2  0
 19 20  1  0
 19 22  1  0
 20 21  1  0
 22 23  1  0
 23 24  2  0
 24 25  1  0
 25 29  2  0
 25 26  1  0
 26 27  2  0
 27 28  1  0
 28 29  1  0
 28 30  1  0
 30 31  1  0
 30 32  1  0
  1 33  1  0
  1 34  1  0
  1 35  1  0
  2 36  1  0
  2 37  1  0
  8 38  1  0
  8 39  1  0
 10 40  1  0
 11 41  1  0
 11 42  1  0
 11 43  1  0
 12 44  1  0
 12 45  1  0
 12 46  1  0
 15 47  1  0
 15 48  1  0
 20 49  1  0
 22 50  1  0
 24 51  1  0
 26 52  1  0
 29 53  1  0
 30 54  1  0
 31 55  1  0
 31 56  1  0
 31 57  1  0
 32 58  1  0
 32 59  1  0
 32 60  1  0
M  END
> <Name>
ZINC20911142

> <reference>
BDB50020402

> <quality>
0.801

> <status>
decoy

$$$$
ZINC15586793
  SciTegic06061311253D

 52 53  0  0  1  0            999 V2000
    4.6278   -0.8448    6.5285 C   0  0
    4.1431   -0.3839    5.1780 C   0  0
    3.0803   -1.0098    4.5434 C   0  0
    2.6888   -0.5306    3.3015 C   0  0
    3.7956    0.7734    3.0209 S   0  0
    4.7354    0.6683    4.5324 C   0  0
    5.8626    1.4961    4.9708 C   0  0
    6.3960    1.2791    6.0419 O   0  0
    6.3084    2.4985    4.1862 O   0  0
    7.4284    3.2770    4.6841 C   0  0
    1.3900   -1.1104    2.2614 S   0  0
    1.1602   -2.4669    2.6166 O   0  0
    1.7229   -0.7154    0.9376 O   0  0
    0.0216   -0.2745    2.6747 N   0  5
   -0.0477    1.1722    2.4544 C   0  0  1  0  0  0
   -0.7562    1.4528    1.1277 C   0  0
   -2.1545    0.8322    1.1551 C   0  0
   -3.0383    1.2655   -0.3686 S   0  0
   -4.6550    0.4645   -0.1811 C   0  0
   -0.8159    1.8155    3.5800 C   0  0
   -1.2617    1.1328    4.4779 O   0  0
   -1.0076    3.1496    3.5890 N   0  0
   -1.7544    3.7750    4.6833 C   0  0  2  0  0  0
   -2.7850    4.8440    4.3147 C   0  0
   -1.4682    5.2478    4.9826 C   0  0
    2.3880   -2.1482    5.1691 C   0  0
    2.7718   -3.2823    4.9601 O   0  0
    1.3285   -1.9329    5.9738 O   0  0
    0.6949   -3.1023    6.5565 C   0  0
    4.5699    0.0512    7.1639 H   0  0
    5.6954   -1.0637    6.3794 H   0  0
    4.0712   -1.6983    6.9429 H   0  0
    8.2456    2.5633    4.8654 H   0  0
    7.1143    3.6852    5.6560 H   0  0
    7.7329    4.0736    3.9894 H   0  0
    0.9705    1.5872    2.4212 H   0  0
   -0.1773    1.0141    0.3016 H   0  0
   -0.8408    2.5395    0.9797 H   0  0
   -2.0689   -0.2619    1.2301 H   0  0
   -2.7107    1.2169    2.0227 H   0  0
   -5.2172    0.8605    0.6775 H   0  0
   -4.5710   -0.6307   -0.1213 H   0  0
   -5.2386    0.6955   -1.0844 H   0  0
   -0.6290    3.7294    2.8265 H   0  0
   -1.7718    2.8494    5.2773 H   0  0
   -3.6209    4.8625    5.0295 H   0  0
   -2.7726    5.0611    3.2364 H   0  0
   -0.7637    5.6781    4.2556 H   0  0
   -1.6116    5.4778    6.0487 H   0  0
    1.4787   -3.6321    7.1177 H   0  0
    0.3909   -3.7418    5.7147 H   0  0
   -0.1599   -2.8451    7.1992 H   0  0
  1  2  1  0
  2  6  2  0
  2  3  1  0
  3  4  2  0
  3 26  1  0
  4  5  1  0
  4 11  1  0
  5  6  1  0
  6  7  1  0
  7  8  2  0
  7  9  1  0
  9 10  1  0
 11 12  2  0
 11 13  2  0
 11 14  1  0
 14 15  1  0
 15 16  1  0
 15 20  1  0
 16 17  1  0
 17 18  1  0
 18 19  1  0
 20 21  2  0
 20 22  1  0
 22 23  1  0
 23 25  1  0
 23 24  1  0
 24 25  1  0
 26 27  2  0
 26 28  1  0
 28 29  1  0
  1 30  1  0
  1 31  1  0
  1 32  1  0
 10 33  1  0
 10 34  1  0
 10 35  1  0
 15 36  1  0
 16 37  1  0
 16 38  1  0
 17 39  1  0
 17 40  1  0
 19 41  1  0
 19 42  1  0
 19 43  1  0
 22 44  1  0
 23 45  1  0
 24 46  1  0
 24 47  1  0
 25 48  1  0
 25 49  1  0
 29 50  1  0
 29 51  1  0
 29 52  1  0
M  CHG  1  14  -1
M  END
> <Name>
ZINC15586793

> <reference>
BDB50020402

> <quality>
0.796

> <status>
decoy

$$$$
ZINC20242006
  SciTegic06061311253D

 65 66  0  0  0  0            999 V2000
   -2.8293   15.9593    5.3461 C   0  0
   -4.2259   15.5262    4.8957 C   0  0
   -4.8564   14.6393    5.9712 C   0  0
   -6.1852   14.1991    5.5258 N   0  3
   -7.0895   15.3442    5.3555 C   0  0
   -7.4703   15.9019    6.7284 C   0  0
   -8.4112   17.0953    6.5510 C   0  0
   -6.0920   13.4133    4.2881 C   0  0
   -5.3504   12.1049    4.5693 C   0  0
   -5.2575   11.3213    3.3351 N   0  0
   -4.6409   10.1229    3.3425 C   0  0
   -4.1630    9.6932    4.3711 O   0  0
   -4.5452    9.3168    2.0728 C   0  0
   -3.6660    7.7655    2.4062 S   0  0
   -4.4535    6.9845    3.2946 O   0  0
   -2.3257    8.0760    2.7619 O   0  0
   -3.6559    6.9540    0.7839 C   0  0
   -2.9488    5.6274    0.8903 C   0  0
   -1.6327    5.4143    0.7094 C   0  0
   -1.4106    4.0986    0.8990 O   0  0
   -2.5911    3.5219    1.1836 C   0  0
   -3.5198    4.4488    1.1813 N   0  0
   -2.8059    2.0854    1.4591 C   0  0
   -4.0868    1.6115    1.7486 C   0  0
   -4.2846    0.2693    1.9992 C   0  0
   -3.2158   -0.6078    1.9755 C   0  0
   -1.9385   -0.1457    1.6891 C   0  0
   -1.7297    1.1987    1.4304 C   0  0
   -0.8926   -1.0131    1.6621 O   0  0
   -1.1805   -2.3853    1.9380 C   0  0
   -0.5981    6.4546    0.3652 C   0  0
   -2.2009   15.0700    5.5017 H   0  0
   -2.9050   16.5234    6.2874 H   0  0
   -2.3754   16.5970    4.5733 H   0  0
   -4.8537   16.4160    4.7406 H   0  0
   -4.1503   14.9622    3.9543 H   0  0
   -4.2178   13.7602    6.1424 H   0  0
   -4.9543   15.2092    6.9069 H   0  0
   -6.5790   13.5910    6.2579 H   0  0
   -7.9983   15.0198    4.8274 H   0  0
   -6.5845   16.1265    4.7698 H   0  0
   -6.5626   16.2271    7.2579 H   0  0
   -7.9765   15.1205    7.3142 H   0  0
   -9.3201   16.7716    6.0226 H   0  0
   -7.9063   17.8777    5.9654 H   0  0
   -8.6854   17.4968    7.5377 H   0  0
   -7.1036   13.1887    3.9191 H   0  0
   -5.5436   13.9886    3.5276 H   0  0
   -4.3385   12.3288    4.9379 H   0  0
   -5.8980   11.5277    5.3289 H   0  0
   -5.6634   11.6862    2.4616 H   0  0
   -3.9967    9.8920    1.3124 H   0  0
   -5.5568    9.0922    1.7037 H   0  0
   -3.1308    7.5913    0.0572 H   0  0
   -4.6909    6.7914    0.4487 H   0  0
   -4.9378    2.3079    1.7769 H   0  0
   -5.2957   -0.1043    2.2185 H   0  0
   -3.3783   -1.6755    2.1843 H   0  0
   -0.7181    1.5661    1.2030 H   0  0
   -1.9347   -2.6974    1.2006 H   0  0
   -1.6507   -2.4088    2.9322 H   0  0
   -0.2859   -3.0241    1.8977 H   0  0
   -0.7330    7.1982    1.1645 H   0  0
   -1.0142    6.9124   -0.5444 H   0  0
    0.4366    6.0979    0.2546 H   0  0
  1  2  1  0
  2  3  1  0
  3  4  1  0
  4  5  1  0
  4  8  1  0
  5  6  1  0
  6  7  1  0
  8  9  1  0
  9 10  1  0
 10 11  1  0
 11 12  2  0
 11 13  1  0
 13 14  1  0
 14 15  2  0
 14 16  2  0
 14 17  1  0
 17 18  1  0
 18 22  1  0
 18 19  2  0
 19 20  1  0
 19 31  1  0
 20 21  1  0
 21 22  2  0
 21 23  1  0
 23 28  2  0
 23 24  1  0
 24 25  2  0
 25 26  1  0
 26 27  2  0
 27 28  1  0
 27 29  1  0
 29 30  1  0
  1 32  1  0
  1 33  1  0
  1 34  1  0
  2 35  1  0
  2 36  1  0
  3 37  1  0
  3 38  1  0
  4 39  1  0
  5 40  1  0
  5 41  1  0
  6 42  1  0
  6 43  1  0
  7 44  1  0
  7 45  1  0
  7 46  1  0
  8 47  1  0
  8 48  1  0
  9 49  1  0
  9 50  1  0
 10 51  1  0
 13 52  1  0
 13 53  1  0
 17 54  1  0
 17 55  1  0
 24 56  1  0
 25 57  1  0
 26 58  1  0
 28 59  1  0
 30 60  1  0
 30 61  1  0
 30 62  1  0
 31 63  1  0
 31 64  1  0
 31 65  1  0
M  CHG  1   4   1
M  END
> <Name>
ZINC20242006

> <reference>
BDB50020402

> <quality>
0.773

> <status>
decoy

$$$$
ZINC30673898
  SciTegic06061311253D

 55 57  0  0  0  0            999 V2000
  -10.2435   -9.7019    3.4733 C   0  0
   -9.2346   -9.0940    2.7738 C   0  0
   -8.7950   -7.8599    3.2424 C   0  0
   -9.8514   -7.6088    4.6581 S   0  0
  -10.7662   -9.0784    4.5642 C   0  0
   -7.7812   -7.0218    2.7281 C   0  0
   -7.1565   -7.3589    1.7426 O   0  0
   -7.4746   -5.7093    3.4020 C   0  0
   -6.3447   -5.0020    2.6510 C   0  0
   -6.0381   -3.6895    3.3250 C   0  0
   -6.6592   -3.3543    4.3049 O   0  0
   -4.9564   -2.7952    2.7762 C   0  0
   -4.8492   -1.5360    3.6387 C   0  0
   -3.7675   -0.6418    3.0898 C   0  0
   -3.1436   -0.9784    2.1057 O   0  0
   -3.4933    0.5321    3.6926 N   0  0
   -2.5702    1.4160    3.1180 C   0  0
   -2.3253    1.3755    1.7531 C   0  0
   -1.4142    2.2479    1.1888 C   0  0
   -0.7407    3.1584    1.9821 C   0  0
   -0.9837    3.2085    3.3422 C   0  0
   -1.8957    2.3373    3.9158 C   0  0
   -2.1320    2.3819    5.2541 O   0  0
   -1.1045    2.1949   -0.5450 S   0  0
   -1.4519    0.8875   -0.9799 O   0  0
    0.1909    2.7446   -0.7431 O   0  0
   -2.1745    3.2333   -1.2654 N   0  0
   -3.5137    2.8784   -1.7575 C   0  0
   -4.1305    4.1542   -2.3683 C   0  0
   -2.8835    5.0147   -2.7029 C   0  0
   -1.9396    4.6653   -1.5254 C   0  0
  -10.6269  -10.6831    3.1567 H   0  0
   -8.7918   -9.5607    1.8815 H   0  0
  -11.5739   -9.4235    5.2264 H   0  0
   -8.3729   -5.0744    3.3944 H   0  0
   -7.1643   -5.8931    4.4412 H   0  0
   -6.6537   -4.8163    1.6118 H   0  0
   -5.4460   -5.6362    2.6586 H   0  0
   -3.9958   -3.3309    2.7895 H   0  0
   -5.2034   -2.5109    1.7427 H   0  0
   -4.6010   -1.8183    4.6725 H   0  0
   -5.8094   -0.9995    3.6255 H   0  0
   -3.9623    0.7795    4.5756 H   0  0
   -2.8562    0.6491    1.1202 H   0  0
   -0.0096    3.8447    1.5298 H   0  0
   -0.4529    3.9401    3.9691 H   0  0
   -1.9452    1.4645    5.5759 H   0  0
   -4.1380    2.5281   -0.9223 H   0  0
   -3.4326    2.0993   -2.5298 H   0  0
   -4.6812    3.9087   -3.2883 H   0  0
   -4.7590    4.6681   -1.6261 H   0  0
   -3.1385    6.0846   -2.6845 H   0  0
   -2.4406    4.6932   -3.6571 H   0  0
   -0.8931    4.8308   -1.8212 H   0  0
   -2.2078    5.2599   -0.6397 H   0  0
  1  5  2  0
  1  2  1  0
  2  3  2  0
  3  4  1  0
  3  6  1  0
  4  5  1  0
  6  7  2  0
  6  8  1  0
  8  9  1  0
  9 10  1  0
 10 11  2  0
 10 12  1  0
 12 13  1  0
 13 14  1  0
 14 15  2  0
 14 16  1  0
 16 17  1  0
 17 22  2  0
 17 18  1  0
 18 19  2  0
 19 20  1  0
 19 24  1  0
 20 21  2  0
 21 22  1  0
 22 23  1  0
 24 25  2  0
 24 26  2  0
 24 27  1  0
 27 31  1  0
 27 28  1  0
 28 29  1  0
 29 30  1  0
 30 31  1  0
  1 32  1  0
  2 33  1  0
  5 34  1  0
  8 35  1  0
  8 36  1  0
  9 37  1  0
  9 38  1  0
 12 39  1  0
 12 40  1  0
 13 41  1  0
 13 42  1  0
 16 43  1  0
 18 44  1  0
 20 45  1  0
 21 46  1  0
 23 47  1  0
 28 48  1  0
 28 49  1  0
 29 50  1  0
 29 51  1  0
 30 52  1  0
 30 53  1  0
 31 54  1  0
 31 55  1  0
M  END
> <Name>
ZINC30673898

> <reference>
BDB50020402

> <quality>
0.772

> <status>
decoy

$$$$
ZINC29992522
  SciTegic06061311253D

 52 53  0  0  0  0            999 V2000
   -8.5024   -3.3514    1.4489 C   0  0
   -8.9088   -2.8206    0.0984 C   0  0
   -8.7370   -1.5226   -0.1922 C   0  0
   -9.1016   -0.9327   -1.4117 C   0  0
   -9.8903   -1.4973   -2.2745 N   0  0
  -10.5316   -2.9909   -1.9224 S   0  0
  -11.7469   -2.7658   -1.2212 O   0  0
  -10.4614   -3.7638   -3.1127 O   0  0
   -9.4628   -3.6683   -0.8386 N   0  0
   -8.5482    0.4306   -1.7375 C   0  0
   -8.1063   -0.6427    0.8562 C   0  0
   -6.6010   -0.5438    0.6007 C   0  0
   -5.9704    0.3360    1.6491 C   0  0
   -6.6572    0.8349    2.5153 O   0  0
   -4.6430    0.5686    1.6242 N   0  0
   -4.0416    1.2868    2.6567 C   0  0
   -4.6549    2.4225    3.1625 C   0  0
   -4.0539    3.1398    4.1840 C   0  0
   -2.8324    2.7203    4.7142 C   0  0
   -2.2160    1.5885    4.2239 C   0  0
   -2.8163    0.8582    3.1915 C   0  0
   -2.1628   -0.3502    2.6648 C   0  0
   -2.7022   -1.0012    1.7915 O   0  0
   -0.9660   -0.7353    3.1508 O   0  0
   -0.3803   -1.9372    2.5844 C   0  0
   -2.2489    3.4300    5.7176 O   0  0
   -0.9998    2.9448    6.2141 C   0  0
   -4.6555    4.2550    4.6719 O   0  0
   -5.9036    4.6285    4.0848 C   0  0  1  0  0  0
   -5.7234    4.8660    2.7179 F   0  0
   -6.8295    3.5946    4.2604 F   0  0
   -7.7983   -4.1689    1.2344 H   0  0
   -9.4139   -3.8075    1.8627 H   0  0
   -8.0726   -2.5895    2.1158 H   0  0
   -9.2272   -4.6706   -0.8667 H   0  0
   -7.4539    0.3279   -1.6920 H   0  0
   -8.8548    1.0840   -0.9074 H   0  0
   -8.8868    0.8139   -2.7114 H   0  0
   -8.5524    0.3617    0.8089 H   0  0
   -8.2807   -1.0749    1.8526 H   0  0
   -6.4246   -0.1106   -0.3949 H   0  0
   -6.1541   -1.5478    0.6482 H   0  0
   -4.0729    0.2157    0.8423 H   0  0
   -5.6200    2.7545    2.7522 H   0  0
   -1.2537    1.2599    4.6435 H   0  0
   -0.2958   -1.7603    1.5020 H   0  0
   -1.1140   -2.7420    2.7391 H   0  0
    0.5936   -2.1853    3.0316 H   0  0
   -0.3193    2.9028    5.3509 H   0  0
   -1.1807    1.9136    6.5515 H   0  0
   -0.5914    3.5697    7.0220 H   0  0
   -6.2780    5.5422    4.5695 H   0  0
  1  2  1  0
  2  9  1  0
  2  3  2  0
  3  4  1  0
  3 11  1  0
  4  5  2  0
  4 10  1  0
  5  6  1  0
  6  7  2  0
  6  8  2  0
  6  9  1  0
 11 12  1  0
 12 13  1  0
 13 14  2  0
 13 15  1  0
 15 16  1  0
 16 21  2  0
 16 17  1  0
 17 18  2  0
 18 19  1  0
 18 28  1  0
 19 20  2  0
 19 26  1  0
 20 21  1  0
 21 22  1  0
 22 23  2  0
 22 24  1  0
 24 25  1  0
 26 27  1  0
 28 29  1  0
 29 30  1  0
 29 31  1  0
  1 32  1  0
  1 33  1  0
  1 34  1  0
  9 35  1  0
 10 36  1  0
 10 37  1  0
 10 38  1  0
 11 39  1  0
 11 40  1  0
 12 41  1  0
 12 42  1  0
 15 43  1  0
 17 44  1  0
 20 45  1  0
 25 46  1  0
 25 47  1  0
 25 48  1  0
 27 49  1  0
 27 50  1  0
 27 51  1  0
 29 52  1  0
M  END
> <Name>
ZINC29992522

> <reference>
BDB50020402

> <quality>
0.772

> <status>
decoy

$$$$
ZINC24941230
  SciTegic06061311253D

 59 60  0  0  1  0            999 V2000
   -8.7119   -8.7515    5.3428 C   0  0
   -8.0902  -10.0835    4.9183 C   0  0
   -7.1042   -9.8442    3.7731 C   0  0  2  0  0  0
   -6.5763  -11.1875    3.2655 C   0  0
   -5.9853   -9.0301    4.2542 N   0  0
   -5.2777   -8.2781    3.3880 C   0  0
   -5.5672   -8.2753    2.2103 O   0  0
   -4.1266   -7.4406    3.8829 C   0  0
   -3.5307   -6.7289    2.7664 O   0  0
   -2.4853   -5.9325    3.0396 C   0  0
   -2.0815   -5.8334    4.1740 O   0  0
   -1.8152   -5.1620    1.9312 C   0  0
   -0.4503   -4.1882    2.6131 S   0  0
    0.1362   -3.4127    1.1437 C   0  0
    1.1956   -2.5622    1.2061 C   0  0
    1.7170   -1.8750   -0.0240 C   0  0  1  0  0  0
    1.2006   -2.5407   -1.2671 C   0  0
    0.1530   -3.3819   -1.2351 C   0  0
   -0.4820   -3.6719   -0.0593 N   0  0
   -0.3297   -4.0149   -2.5146 C   0  0
    1.8326   -2.2752   -2.5033 C   0  0
    1.4270   -2.8061   -3.5204 O   0  0
    2.8857   -1.4329   -2.5555 O   0  0
    3.4757   -1.2106   -3.8379 C   0  0
    4.6462   -0.2352   -3.6987 C   0  0
    1.2742   -0.4346   -0.0124 C   0  0
    2.0859    0.6380   -0.0144 C   0  0
    1.2541    1.7812   -0.0004 C   0  0
   -0.0161    1.3388    0.0094 C   0  0
    0.0021   -0.0041    0.0020 O   0  0
    1.8258   -2.3167    2.4684 C   0  0
    2.3257   -2.1220    3.4697 N   0  0
   -9.2435   -8.3053    4.4894 H   0  0
   -7.9196   -8.0666    5.6792 H   0  0
   -9.4209   -8.9228    6.1662 H   0  0
   -7.5585  -10.5288    5.7721 H   0  0
   -8.8824  -10.7685    4.5819 H   0  0
   -7.6150   -9.3176    2.9535 H   0  0
   -7.4157  -11.7995    2.9038 H   0  0
   -6.0650  -11.7148    4.0844 H   0  0
   -5.8673  -11.0162    2.4421 H   0  0
   -5.7394   -9.0324    5.2544 H   0  0
   -4.4926   -6.7162    4.6254 H   0  0
   -3.3711   -8.0915    4.3471 H   0  0
   -1.4243   -5.8645    1.1804 H   0  0
   -2.5448   -4.4882    1.4583 H   0  0
    2.8153   -1.9365   -0.0225 H   0  0
   -1.4253   -4.0853   -0.0734 H   0  0
    0.5446   -4.5388   -2.9283 H   0  0
   -0.5585   -3.1749   -3.1870 H   0  0
   -1.1909   -4.6849   -2.3752 H   0  0
    3.8411   -2.1653   -4.2441 H   0  0
    2.7244   -0.7856   -4.5197 H   0  0
    5.3991   -0.6592   -3.0180 H   0  0
    4.2823    0.7202   -3.2927 H   0  0
    5.1008   -0.0637   -4.6856 H   0  0
    3.1858    0.6277   -0.0249 H   0  0
    1.5827    2.8310    0.0020 H   0  0
   -0.9170    1.9699    0.0214 H   0  0
  1  2  1  0
  2  3  1  0
  3  4  1  0
  3  5  1  0
  5  6  1  0
  6  7  2  0
  6  8  1  0
  8  9  1  0
  9 10  1  0
 10 11  2  0
 10 12  1  0
 12 13  1  0
 13 14  1  0
 14 19  1  0
 14 15  2  0
 15 16  1  0
 15 31  1  0
 16 17  1  0
 16 26  1  0
 17 18  2  0
 17 21  1  0
 18 19  1  0
 18 20  1  0
 21 22  2  0
 21 23  1  0
 23 24  1  0
 24 25  1  0
 26 30  1  0
 26 27  2  0
 27 28  1  0
 28 29  2  0
 29 30  1  0
 31 32  3  0
  1 33  1  0
  1 34  1  0
  1 35  1  0
  2 36  1  0
  2 37  1  0
  3 38  1  0
  4 39  1  0
  4 40  1  0
  4 41  1  0
  5 42  1  0
  8 43  1  0
  8 44  1  0
 12 45  1  0
 12 46  1  0
 16 47  1  0
 19 48  1  0
 20 49  1  0
 20 50  1  0
 20 51  1  0
 24 52  1  0
 24 53  1  0
 25 54  1  0
 25 55  1  0
 25 56  1  0
 27 57  1  0
 28 58  1  0
 29 59  1  0
M  END
> <Name>
ZINC24941230

> <reference>
BDB50020402

> <quality>
0.767

> <status>
decoy

$$$$
ZINC30786350
  SciTegic06061311253D

 62 63  0  0  0  0            999 V2000
    1.4167    2.0553   -0.0004 C   0  0
   -0.0187    1.5258    0.0104 C   0  0
    0.0021   -0.0041    0.0020 C   0  0
   -1.4333   -0.5336    0.0129 C   0  0
   -1.4134   -1.9985    0.0048 N   0  0
   -1.4188   -2.7942   -1.0824 C   0  0
   -1.3923   -4.0489   -0.7113 N   0  0
   -1.3786   -4.1262    0.6218 C   0  0
   -1.3917   -2.8256    1.1099 C   0  0
   -1.3814   -2.6146    2.5056 C   0  0
   -1.3929   -1.4838    2.9578 O   0  0
   -1.3590   -3.6804    3.3328 N   0  0
   -1.3466   -4.9336    2.8468 C   0  0
   -1.3261   -5.8698    3.6225 O   0  0
   -1.3557   -5.1784    1.5229 N   0  0
   -1.3416   -6.5595    1.0345 C   0  0
   -2.7789   -7.0599    0.8781 C   0  0
   -2.7641   -8.5023    0.3679 C   0  0
   -4.2014   -9.0028    0.2115 C   0  0
   -1.4474   -2.3122   -2.5100 C   0  0
   -0.0148   -2.1287   -3.0151 C   0  0
   -0.0434   -1.6467   -4.4427 C   0  0
   -1.1050   -1.4676   -5.0011 O   0  0
    1.1108   -1.4147   -5.0988 N   0  0
    1.0830   -0.9462   -6.4866 C   0  0
    2.5155   -0.7627   -6.9917 C   0  0
    3.1718   -2.0314   -7.0341 O   0  0
    4.5232   -1.9716   -7.4947 C   0  0
    5.1233   -3.3790   -7.4990 C   0  0  1  0  0  0
    4.3767   -4.2018   -8.3492 F   0  0
    6.4463   -3.3205   -7.9500 F   0  0
    5.0956   -3.9017   -6.2016 F   0  0
    1.9325    1.7013   -0.9052 H   0  0
    1.9495    1.6917    0.8906 H   0  0
    1.4025    3.1552    0.0056 H   0  0
   -0.5335    1.8800    0.9156 H   0  0
   -0.5516    1.8894   -0.8806 H   0  0
    0.5164   -0.3590   -0.9033 H   0  0
    0.5337   -0.3696    0.8929 H   0  0
   -1.9662   -0.1699   -0.8780 H   0  0
   -1.9481   -0.1794    0.9182 H   0  0
   -1.3513   -3.5315    4.3519 H   0  0
   -0.8322   -6.5989    0.0604 H   0  0
   -0.8079   -7.1984    1.7535 H   0  0
   -3.2888   -7.0213    1.8520 H   0  0
   -3.3139   -6.4227    0.1585 H   0  0
   -2.2303   -9.1412    1.0868 H   0  0
   -2.2547   -8.5416   -0.6062 H   0  0
   -4.7364   -8.3656   -0.5081 H   0  0
   -4.7122   -8.9642    1.1850 H   0  0
   -4.1915  -10.0398   -0.1553 H   0  0
   -1.9646   -3.0533   -3.1371 H   0  0
   -1.9800   -1.3512   -2.5631 H   0  0
    0.5191   -3.0891   -2.9638 H   0  0
    0.5029   -1.3874   -2.3887 H   0  0
    2.0124   -1.5668   -4.6245 H   0  0
    0.5503    0.0148   -6.5398 H   0  0
    0.5658   -1.6873   -7.1137 H   0  0
    2.4954   -0.3269   -8.0015 H   0  0
    3.0615   -0.0908   -6.3132 H   0  0
    5.1112   -1.3251   -6.8266 H   0  0
    4.5452   -1.5611   -8.5150 H   0  0
  1  2  1  0
  2  3  1  0
  3  4  1  0
  4  5  1  0
  5  9  1  0
  5  6  1  0
  6  7  2  0
  6 20  1  0
  7  8  1  0
  8 15  1  0
  8  9  2  0
  9 10  1  0
 10 11  2  0
 10 12  1  0
 12 13  1  0
 13 14  2  0
 13 15  1  0
 15 16  1  0
 16 17  1  0
 17 18  1  0
 18 19  1  0
 20 21  1  0
 21 22  1  0
 22 23  2  0
 22 24  1  0
 24 25  1  0
 25 26  1  0
 26 27  1  0
 27 28  1  0
 28 29  1  0
 29 30  1  0
 29 31  1  0
 29 32  1  0
  1 33  1  0
  1 34  1  0
  1 35  1  0
  2 36  1  0
  2 37  1  0
  3 38  1  0
  3 39  1  0
  4 40  1  0
  4 41  1  0
 12 42  1  0
 16 43  1  0
 16 44  1  0
 17 45  1  0
 17 46  1  0
 18 47  1  0
 18 48  1  0
 19 49  1  0
 19 50  1  0
 19 51  1  0
 20 52  1  0
 20 53  1  0
 21 54  1  0
 21 55  1  0
 24 56  1  0
 25 57  1  0
 25 58  1  0
 26 59  1  0
 26 60  1  0
 28 61  1  0
 28 62  1  0
M  END
> <Name>
ZINC30786350

> <reference>
BDB50020402

> <quality>
0.759

> <status>
decoy

$$$$
ZINC16133437
  SciTegic06061311253D

 46 48  0  0  0  0            999 V2000
   -7.9057    7.6725   -3.8665 C   0  0
   -8.0150    9.0564   -2.6988 S   0  0
   -9.3673    9.2699   -2.3181 O   0  0
   -7.2085   10.1380   -3.1448 O   0  0
   -7.2697    8.5127   -1.3235 N   0  0
   -5.8372    8.2063   -1.3390 C   0  0
   -5.3246    8.0918    0.0981 C   0  0
   -3.8510    7.7767    0.0822 C   0  0
   -2.8017    8.6432    0.0769 C   0  0
   -1.5244    8.1483    0.0619 C   0  0
   -1.3830    6.7642    0.0530 C   0  0
   -3.0829    6.2226    0.0590 S   0  0
   -0.2019    5.9899    0.0370 C   0  0
    0.8825    6.5366    0.0291 O   0  0
   -0.2873    4.4853    0.0296 C   0  0
    1.3859    3.7848    0.0092 S   0  0
    1.1188    2.0432    0.0023 C   0  0
   -0.0166    1.3715    0.0096 N   0  0
    0.0021   -0.0041    0.0020 N   0  0
    1.1544   -0.6448   -0.0124 C   0  0
    2.3129    0.7149   -0.0162 S   0  0
    1.4016   -2.0126   -0.0221 N   0  0
    0.2834   -2.9591   -0.0160 C   0  0
    0.8179   -4.3681   -0.0288 C   0  0
    1.1078   -5.1093    1.0556 C   0  0
    1.5774   -6.3571    0.5852 C   0  0
    1.5465   -6.3037   -0.7585 C   0  0
    1.0801   -5.0987   -1.1247 O   0  0
   -8.5052    7.9032   -4.7594 H   0  0
   -8.2994    6.7631   -3.3890 H   0  0
   -6.8566    7.5134   -4.1564 H   0  0
   -7.8133    8.3900   -0.4573 H   0  0
   -5.6714    7.2539   -1.8638 H   0  0
   -5.2947    9.0102   -1.8580 H   0  0
   -5.4897    9.0441    0.6234 H   0  0
   -5.8652    7.2874    0.6184 H   0  0
   -2.9772    9.7291    0.0846 H   0  0
   -0.6497    8.8153    0.0571 H   0  0
   -0.8163    4.1434    0.9314 H   0  0
   -0.8342    4.1523   -0.8648 H   0  0
    2.3709   -2.3607   -0.0336 H   0  0
   -0.3223   -2.8055    0.8893 H   0  0
   -0.3410   -2.7965   -0.9069 H   0  0
    1.0002   -4.8033    2.1067 H   0  0
    1.9052   -7.2083    1.2001 H   0  0
    1.8515   -7.1102   -1.4415 H   0  0
  1  2  1  0
  2  3  2  0
  2  4  2  0
  2  5  1  0
  5  6  1  0
  6  7  1  0
  7  8  1  0
  8 12  1  0
  8  9  2  0
  9 10  1  0
 10 11  2  0
 11 12  1  0
 11 13  1  0
 13 14  2  0
 13 15  1  0
 15 16  1  0
 16 17  1  0
 17 21  1  0
 17 18  2  0
 18 19  1  0
 19 20  2  0
 20 21  1  0
 20 22  1  0
 22 23  1  0
 23 24  1  0
 24 28  1  0
 24 25  2  0
 25 26  1  0
 26 27  2  0
 27 28  1  0
  1 29  1  0
  1 30  1  0
  1 31  1  0
  5 32  1  0
  6 33  1  0
  6 34  1  0
  7 35  1  0
  7 36  1  0
  9 37  1  0
 10 38  1  0
 15 39  1  0
 15 40  1  0
 22 41  1  0
 23 42  1  0
 23 43  1  0
 25 44  1  0
 26 45  1  0
 27 46  1  0
M  END
> <Name>
ZINC16133437

> <reference>
BDB50020402

> <quality>
0.739

> <status>
decoy

$$$$
ZINC25483120
  SciTegic06061311253D

 61 62  0  0  1  0            999 V2000
   -2.5274    0.3419    0.9347 C   0  0
   -2.4121    0.8526   -0.5029 C   0  0  2  0  0  0
   -1.1399    1.6463   -0.6535 C   0  0
   -1.1603    2.8526   -0.5335 O   0  0
    0.0204    1.0153   -0.9216 N   0  0
    1.1571    1.7257   -1.0618 C   0  0
    1.1367    2.9349   -0.9415 O   0  0
    2.3164    1.0951   -1.3354 N   0  0
    3.5520    1.8674   -1.4878 C   0  0
    4.6951    0.9322   -1.7877 C   0  0
    5.4325    1.1200   -2.8541 C   0  0
   -3.8313    1.9095   -0.8834 S   0  0
   -5.1313    0.7245   -0.7813 C   0  0
   -5.0018   -0.5522   -0.4991 N   0  0
   -6.1520   -1.1253   -0.5084 N   0  0
   -7.0867   -0.2499   -0.7972 C   0  0
   -6.4625    0.9632   -0.9751 N   0  0
   -7.0934    2.2433   -1.3061 C   0  0
   -7.0742    2.4442   -2.8227 C   0  0
   -7.7331    3.7811   -3.1685 C   0  0
   -7.7152    3.9687   -4.5850 O   0  0
   -8.3100    5.1943   -5.0165 C   0  0
   -8.5367   -0.5161   -0.9046 C   0  0
   -9.3626    0.3758   -1.5909 C   0  0
  -10.7155    0.1258   -1.6906 C   0  0
  -11.2586   -1.0106   -1.1097 C   0  0
  -10.4403   -1.9041   -0.4227 C   0  0
   -9.0823   -1.6628   -0.3248 C   0  0
  -10.9760   -3.0170    0.1466 O   0  0
  -10.0781   -3.8895    0.8356 C   0  0
  -12.5927   -1.2527   -1.2107 O   0  0
  -13.3732   -0.2949   -1.9287 C   0  0
   -2.5446    1.1957    1.6280 H   0  0
   -1.6654   -0.3009    1.1668 H   0  0
   -3.4558   -0.2376    1.0453 H   0  0
   -2.3953   -0.0019   -1.1954 H   0  0
    0.0385   -0.0099   -1.0194 H   0  0
    2.3337    0.0703   -1.4373 H   0  0
    3.7612    2.4142   -0.5565 H   0  0
    3.4376    2.5830   -2.3154 H   0  0
    4.9103    0.0919   -1.1112 H   0  0
    5.2173    1.9603   -3.5306 H   0  0
    6.2669    0.4374   -3.0730 H   0  0
   -8.1342    2.2422   -0.9501 H   0  0
   -6.5409    3.0618   -0.8215 H   0  0
   -6.0336    2.4458   -3.1794 H   0  0
   -7.6273    1.6271   -3.3090 H   0  0
   -8.7739    3.7800   -2.8124 H   0  0
   -7.1806    4.5996   -2.6840 H   0  0
   -7.7660    6.0166   -4.5289 H   0  0
   -9.3494    5.2032   -4.6566 H   0  0
   -8.2746    5.2973   -6.1111 H   0  0
   -8.9346    1.2780   -2.0522 H   0  0
  -11.3651    0.8293   -2.2320 H   0  0
   -8.4333   -2.3728    0.2088 H   0  0
   -9.5888   -3.2808    1.6102 H   0  0
   -9.3114   -4.1847    0.1041 H   0  0
  -10.5839   -4.7653    1.2681 H   0  0
  -12.9349   -0.2311   -2.9356 H   0  0
  -13.2128    0.6718   -1.4290 H   0  0
  -14.4404   -0.5588   -1.9674 H   0  0
  1  2  1  0
  2  3  1  0
  2 12  1  0
  3  4  2  0
  3  5  1  0
  5  6  1  0
  6  7  2  0
  6  8  1  0
  8  9  1  0
  9 10  1  0
 10 11  2  0
 12 13  1  0
 13 17  1  0
 13 14  2  0
 14 15  1  0
 15 16  2  0
 16 17  1  0
 16 23  1  0
 17 18  1  0
 18 19  1  0
 19 20  1  0
 20 21  1  0
 21 22  1  0
 23 28  2  0
 23 24  1  0
 24 25  2  0
 25 26  1  0
 26 27  2  0
 26 31  1  0
 27 28  1  0
 27 29  1  0
 29 30  1  0
 31 32  1  0
  1 33  1  0
  1 34  1  0
  1 35  1  0
  2 36  1  0
  5 37  1  0
  8 38  1  0
  9 39  1  0
  9 40  1  0
 10 41  1  0
 11 42  1  0
 11 43  1  0
 18 44  1  0
 18 45  1  0
 19 46  1  0
 19 47  1  0
 20 48  1  0
 20 49  1  0
 22 50  1  0
 22 51  1  0
 22 52  1  0
 24 53  1  0
 25 54  1  0
 28 55  1  0
 30 56  1  0
 30 57  1  0
 30 58  1  0
 32 59  1  0
 32 60  1  0
 32 61  1  0
M  END
> <Name>
ZINC25483120

> <reference>
BDB50020402

> <quality>
0.739

> <status>
decoy

$$$$
ZINC22677538
  SciTegic06061311253D

 50 50  0  0  1  0            999 V2000
   15.2162    2.6501   -3.1116 C   0  0
   14.1419    1.7508   -2.4966 C   0  0
   12.8723    2.4553   -2.4801 O   0  0
   11.8157    1.7985   -1.9667 C   0  0
   11.9504    0.6678   -1.5440 O   0  0
   10.6082    2.3954   -1.9217 N   0  0
    9.5501    1.7376   -1.4076 C   0  0
    9.6845    0.6091   -0.9857 O   0  0
    8.1999    2.4051   -1.3573 C   0  0
    7.2334    1.4980   -0.7645 O   0  0
    5.9726    1.9432   -0.6460 C   0  0
    5.6862    3.0542   -1.0250 O   0  0
    4.9145    1.0575   -0.0403 C   0  0  1  0  0  0
    5.3135    0.6919    1.3909 C   0  0
    4.3043   -0.3059    1.9625 C   0  0
    4.7773   -0.7394    3.6593 S   0  0
    3.4981   -1.9131    4.1852 C   0  0
    3.6336    1.7683   -0.0237 N   0  0
    2.4781    1.0746   -0.0164 C   0  0
    2.4987   -0.1408   -0.0235 O   0  0
    1.1859    1.7916    0.0004 C   0  0
    1.1590    3.1876    0.0082 C   0  0
   -0.0496    3.8509    0.0233 C   0  0
   -1.2357    3.1352    0.0303 C   0  0
   -1.2154    1.7505    0.0173 C   0  0
   -0.0126    1.0758    0.0080 C   0  0
   -2.4871    0.9931    0.0192 N   0  0
   -2.4706   -0.2248    0.0124 O   0  0
   -3.5501    1.5877    0.0274 O   0  0
   -2.7536    3.9774    0.0488 Cl  0  0
   15.3146    3.5676   -2.5129 H   0  0
   14.9304    2.9134   -4.1407 H   0  0
   16.1783    2.1170   -3.1244 H   0  0
   14.0440    0.8337   -3.0961 H   0  0
   14.4277    1.4874   -1.4675 H   0  0
   10.4940    3.3542   -2.2802 H   0  0
    8.2651    3.3193   -0.7490 H   0  0
    7.8800    2.6652   -2.3771 H   0  0
    4.8171    0.1402   -0.6395 H   0  0
    6.3155    0.2381    1.3878 H   0  0
    5.3237    1.5990    2.0130 H   0  0
    3.3021    0.1475    1.9664 H   0  0
    4.2935   -1.2143    1.3423 H   0  0
    3.4980   -2.8279    3.5744 H   0  0
    2.4978   -1.4559    4.2038 H   0  0
    3.7363   -2.2125    5.2165 H   0  0
    3.6161    2.7981   -0.0176 H   0  0
    2.1001    3.7570    0.0023 H   0  0
   -0.0721    4.9507    0.0298 H   0  0
    0.0023   -0.0241    0.0066 H   0  0
  1  2  1  0
  2  3  1  0
  3  4  1  0
  4  5  2  0
  4  6  1  0
  6  7  1  0
  7  8  2  0
  7  9  1  0
  9 10  1  0
 10 11  1  0
 11 12  2  0
 11 13  1  0
 13 14  1  0
 13 18  1  0
 14 15  1  0
 15 16  1  0
 16 17  1  0
 18 19  1  0
 19 20  2  0
 19 21  1  0
 21 26  2  0
 21 22  1  0
 22 23  2  0
 23 24  1  0
 24 25  2  0
 24 30  1  0
 25 26  1  0
 25 27  1  0
 27 28  2  0
 27 29  2  0
  1 31  1  0
  1 32  1  0
  1 33  1  0
  2 34  1  0
  2 35  1  0
  6 36  1  0
  9 37  1  0
  9 38  1  0
 13 39  1  0
 14 40  1  0
 14 41  1  0
 15 42  1  0
 15 43  1  0
 17 44  1  0
 17 45  1  0
 17 46  1  0
 18 47  1  0
 22 48  1  0
 23 49  1  0
 26 50  1  0
M  END
> <Name>
ZINC22677538

> <reference>
BDB50020402

> <quality>
0.735

> <status>
decoy

$$$$
ZINC24160789
  SciTegic06061311253D

 63 64  0  0  1  0            999 V2000
    6.4248   -1.5137    0.5728 C   0  0
    5.5868   -0.6100    1.4794 C   0  0
    4.4555   -0.1245    0.7537 O   0  0
    3.6086    0.6925    1.4142 C   0  0
    3.8261    0.9841    2.5753 O   0  0
    2.4680    1.2099    0.7566 C   0  0
    2.5667    2.2520   -0.0966 C   0  0
    1.4648    2.7505   -0.7307 N   0  0
    0.2288    2.2629   -0.5654 C   0  0
   -0.6912    2.7742   -1.1734 O   0  0
   -0.0285    1.2235    0.2531 N   0  0
    1.0940    0.6134    0.9853 C   0  0  1  0  0  0
    1.1541   -0.8680    0.6074 C   0  0
    3.9147    2.8752   -0.3527 C   0  0
    4.3632    2.5264   -1.6890 O   0  0
    5.5610    3.0084   -2.0781 C   0  0
    6.2127    3.7014   -1.3206 O   0  0
    6.0782    2.6965   -3.4158 C   0  0
    7.3056    3.1904   -3.8145 C   0  0
    7.8388    2.8292   -5.0777 C   0  0
    7.4176    1.7080   -5.9297 C   0  0
    8.1957    1.7506   -7.0238 C   0  0
    9.0607    2.8019   -6.9200 N   0  0
    8.8600    3.4640   -5.7659 C   0  0
    9.6165    4.6817   -5.3014 C   0  0
   10.0617    3.1627   -7.9270 C   0  0  1  0  0  0
   11.1029    2.0467   -8.0338 C   0  0
    9.3768    3.3526   -9.2818 C   0  0
   10.3321    3.8171  -10.2376 O   0  0
    9.7922    4.0279  -11.5438 C   0  0
    8.1252    0.7897   -8.1825 C   0  0
    5.3108    1.8803   -4.3078 C   0  0
    4.7020    1.2329   -5.0154 N   0  0
    6.7689   -0.9407   -0.3009 H   0  0
    5.8140   -2.3641    0.2354 H   0  0
    7.2958   -1.8878    1.1308 H   0  0
    5.2429   -1.1839    2.3526 H   0  0
    6.1975    0.2404    1.8169 H   0  0
    1.5916    3.5463   -1.3722 H   0  0
   -0.9875    0.8644    0.3638 H   0  0
    0.8761    0.8034    2.0466 H   0  0
    1.8880   -1.3914    1.2378 H   0  0
    1.4276   -0.9789   -0.4523 H   0  0
    0.1625   -1.3162    0.7681 H   0  0
    3.8354    3.9690   -0.2670 H   0  0
    4.6391    2.5011    0.3857 H   0  0
    7.8690    3.8638   -3.1519 H   0  0
    6.6228    0.9787   -5.7141 H   0  0
    9.9858    4.3704   -4.3131 H   0  0
    8.8098    5.4034   -5.1055 H   0  0
   10.4007    5.0582   -5.9746 H   0  0
   10.5572    4.0995   -7.6322 H   0  0
   10.6084    1.1095   -8.3288 H   0  0
   11.5962    1.9096   -7.0602 H   0  0
   11.8549    2.3170   -8.7898 H   0  0
    8.9584    2.3928   -9.6190 H   0  0
    8.5676    4.0913   -9.1845 H   0  0
    8.9770    4.7607  -11.4513 H   0  0
    9.3648    3.0731  -11.8840 H   0  0
   10.5603    4.3844  -12.2460 H   0  0
    7.0709    0.8523   -8.4901 H   0  0
    8.2434   -0.1902   -7.6969 H   0  0
    8.8380    0.9687   -9.0009 H   0  0
  1  2  1  0
  2  3  1  0
  3  4  1  0
  4  5  2  0
  4  6  1  0
  6 12  1  0
  6  7  2  0
  7  8  1  0
  7 14  1  0
  8  9  1  0
  9 10  2  0
  9 11  1  0
 11 12  1  0
 12 13  1  0
 14 15  1  0
 15 16  1  0
 16 17  2  0
 16 18  1  0
 18 19  2  0
 18 32  1  0
 19 20  1  0
 20 24  2  0
 20 21  1  0
 21 22  2  0
 22 23  1  0
 22 31  1  0
 23 24  1  0
 23 26  1  0
 24 25  1  0
 26 27  1  0
 26 28  1  0
 28 29  1  0
 29 30  1  0
 32 33  3  0
  1 34  1  0
  1 35  1  0
  1 36  1  0
  2 37  1  0
  2 38  1  0
  8 39  1  0
 11 40  1  0
 12 41  1  0
 13 42  1  0
 13 43  1  0
 13 44  1  0
 14 45  1  0
 14 46  1  0
 19 47  1  0
 21 48  1  0
 25 49  1  0
 25 50  1  0
 25 51  1  0
 26 52  1  0
 27 53  1  0
 27 54  1  0
 27 55  1  0
 28 56  1  0
 28 57  1  0
 30 58  1  0
 30 59  1  0
 30 60  1  0
 31 61  1  0
 31 62  1  0
 31 63  1  0
M  END
> <Name>
ZINC24160789

> <reference>
BDB50020402

> <quality>
0.731

> <status>
decoy

$$$$
ZINC31621260
  SciTegic06061311253D

 65 67  0  0  0  0            999 V2000
   16.2042    5.3533   -1.3733 C   0  0
   14.9705    5.9830   -2.0232 C   0  0
   13.9328    4.9626   -2.1916 N   0  0
   13.9409    4.0979   -3.3742 C   0  0
   13.2267    4.8049   -4.5278 C   0  0
   12.7508    4.7865   -1.0453 S   0  0
   13.2806    5.3045    0.1673 O   0  0
   12.2701    3.4542   -1.1589 O   0  0
   11.4180    5.8436   -1.5046 C   0  0
   11.5634    7.2352   -1.4150 C   0  0
   10.5218    8.0389   -1.7750 C   0  0
    9.3286    7.4547   -2.2334 C   0  0
    8.3907    8.1624   -2.5642 O   0  0
    9.2179    6.1145   -2.3031 N   0  0
   10.2534    5.3129   -1.9448 C   0  0
    7.9680    5.5148   -2.7767 C   0  0
    7.0508    5.2743   -1.6054 C   0  0
    7.4062    5.5743   -0.4853 O   0  0
    5.8356    4.7258   -1.8026 N   0  0
    4.9464    4.5913   -0.7306 C   0  0
    5.4273    4.3072    0.5410 C   0  0
    4.5472    4.1756    1.5969 C   0  0
    3.1886    4.3315    1.3902 C   0  0
    2.7063    4.6092    0.1246 C   0  0
    3.5814    4.7421   -0.9358 C   0  0
    1.2247    4.7731   -0.0971 C   0  0
    0.6324    3.4708   -0.4305 N   0  3
   -0.8343    3.5419   -0.4212 C   0  0
   -1.4138    2.2134   -0.9125 C   0  0
   -0.9331    1.0832    0.0017 C   0  0
    0.5979    1.0618    0.0120 C   0  0
    1.1191    2.4236    0.4766 C   0  0
   16.5860    4.5455   -2.0150 H   0  0
   15.9323    4.9421   -0.3899 H   0  0
   16.9838    6.1189   -1.2466 H   0  0
   14.5893    6.7904   -1.3807 H   0  0
   15.2423    6.3942   -3.0066 H   0  0
   14.9799    3.8824   -3.6640 H   0  0
   13.4214    3.1559   -3.1446 H   0  0
   13.7456    5.7467   -4.7595 H   0  0
   12.1874    5.0210   -4.2396 H   0  0
   13.2324    4.1562   -5.4161 H   0  0
   12.5070    7.6740   -1.0584 H   0  0
   10.6147    9.1329   -1.7072 H   0  0
   10.1447    4.2204   -2.0130 H   0  0
    8.1845    4.5580   -3.2744 H   0  0
    7.4808    6.1967   -3.4892 H   0  0
    5.5614    4.4056   -2.7424 H   0  0
    6.5081    4.1872    0.7068 H   0  0
    4.9271    3.9465    2.6035 H   0  0
    2.4903    4.2343    2.2345 H   0  0
    3.1974    4.9672   -1.9417 H   0  0
    1.0523    5.4763   -0.9253 H   0  0
    0.7578    5.1639    0.8190 H   0  0
    0.9287    3.2220   -1.3851 H   0  0
   -1.1672    4.3538   -1.0845 H   0  0
   -1.1854    3.7381    0.6026 H   0  0
   -2.5125    2.2611   -0.8897 H   0  0
   -1.0748    2.0218   -1.9413 H   0  0
   -1.3107    0.1203   -0.3729 H   0  0
   -1.3045    1.2534    1.0230 H   0  0
    0.9497    0.2800    0.7013 H   0  0
    0.9701    0.8535   -1.0019 H   0  0
    2.2191    2.4158    0.4710 H   0  0
    0.7594    2.6244    1.4965 H   0  0
  1  2  1  0
  2  3  1  0
  3  4  1  0
  3  6  1  0
  4  5  1  0
  6  7  2  0
  6  8  2  0
  6  9  1  0
  9 15  2  0
  9 10  1  0
 10 11  2  0
 11 12  1  0
 12 13  2  0
 12 14  1  0
 14 15  1  0
 14 16  1  0
 16 17  1  0
 17 18  2  0
 17 19  1  0
 19 20  1  0
 20 25  2  0
 20 21  1  0
 21 22  2  0
 22 23  1  0
 23 24  2  0
 24 25  1  0
 24 26  1  0
 26 27  1  0
 27 32  1  0
 27 28  1  0
 28 29  1  0
 29 30  1  0
 30 31  1  0
 31 32  1  0
  1 33  1  0
  1 34  1  0
  1 35  1  0
  2 36  1  0
  2 37  1  0
  4 38  1  0
  4 39  1  0
  5 40  1  0
  5 41  1  0
  5 42  1  0
 10 43  1  0
 11 44  1  0
 15 45  1  0
 16 46  1  0
 16 47  1  0
 19 48  1  0
 21 49  1  0
 22 50  1  0
 23 51  1  0
 25 52  1  0
 26 53  1  0
 26 54  1  0
 27 55  1  0
 28 56  1  0
 28 57  1  0
 29 58  1  0
 29 59  1  0
 30 60  1  0
 30 61  1  0
 31 62  1  0
 31 63  1  0
 32 64  1  0
 32 65  1  0
M  CHG  1  27   1
M  END
> <Name>
ZINC31621260

> <reference>
BDB50020402

> <quality>
0.731

> <status>
decoy

$$$$
ZINC29425551
  SciTegic06061311253D

 63 65  0  0  1  0            999 V2000
    1.8304    4.2435   -1.5531 C   0  0
    0.7813    3.5338   -0.6949 C   0  0
    0.9591    2.0193   -0.8208 C   0  0
   -0.0208    1.3564   -0.0193 O   0  0
   -0.0010   -0.0040   -0.0191 C   0  0
    0.9414   -0.6834   -0.7742 C   0  0
    0.9630   -2.0651   -0.7746 C   0  0
    0.0398   -2.7756   -0.0191 C   0  0
   -0.9062   -2.0982    0.7378 C   0  0
   -0.9236   -0.7132    0.7440 C   0  0
   -1.8453   -0.0473    1.4899 O   0  0
   -2.7611   -0.8397    2.2485 C   0  0
   -3.7142    0.0778    3.0170 C   0  0
   -4.6948   -0.7706    3.8292 C   0  0
    0.0629   -4.1764   -0.0211 N   0  0
    1.2353   -4.8309   -0.1371 C   0  0
    2.2779   -4.2111   -0.1435 O   0  0
    1.2510   -6.3329   -0.2589 C   0  0
    2.6229   -6.7952   -0.3702 O   0  0
    2.8123   -8.1189   -0.4870 C   0  0
    1.8632   -8.8666   -0.4960 O   0  0
    4.2088   -8.6726   -0.6070 C   0  0
    4.1474  -10.1318   -0.7212 N   0  0
    4.0558  -10.7966   -1.8900 C   0  0
    4.0092  -10.3180   -3.0029 O   0  0
    4.0224  -12.2670   -1.5235 C   0  0  1  0  0  0
    4.1070  -12.2594   -0.0529 N   0  5
    4.1812  -10.9694    0.3216 C   0  0
    4.2661  -10.6054    1.4780 O   0  0
    2.7127  -12.9077   -1.9873 C   0  0
    5.2218  -12.9998   -2.1279 C   0  0  2  0  0  0
    4.9598  -13.9174   -3.3239 C   0  0
    5.2824  -14.5188   -1.9545 C   0  0
    1.7069    3.9468   -2.6051 H   0  0
    2.8372    3.9634   -1.2096 H   0  0
    1.7032    5.3324   -1.4631 H   0  0
    0.9058    3.8309    0.3569 H   0  0
   -0.2255    3.8138   -1.0384 H   0  0
    0.8344    1.7215   -1.8724 H   0  0
    1.9651    1.7372   -0.4766 H   0  0
    1.6731   -0.1223   -1.3740 H   0  0
    1.7124   -2.6027   -1.3741 H   0  0
   -1.6413   -2.6607    1.3321 H   0  0
   -3.3400   -1.4825    1.5691 H   0  0
   -2.2034   -1.4664    2.9600 H   0  0
   -4.2737    0.7046    2.3070 H   0  0
   -3.1359    0.7206    3.6970 H   0  0
   -4.1370   -1.3973    4.5406 H   0  0
   -5.2740   -1.4140    3.1505 H   0  0
   -5.3804   -0.1115    4.3820 H   0  0
   -0.8162   -4.7061    0.0661 H   0  0
    0.7858   -6.7781    0.6330 H   0  0
    0.6892   -6.6351   -1.1550 H   0  0
    4.6932   -8.2553   -1.5022 H   0  0
    4.7906   -8.3996    0.2857 H   0  0
    2.6273  -12.7994   -3.0786 H   0  0
    1.8700  -12.3901   -1.5056 H   0  0
    2.6988  -13.9738   -1.7166 H   0  0
    5.9082  -12.1650   -1.9230 H   0  0
    5.8285  -13.9608   -3.9973 H   0  0
    3.8858  -13.9866   -3.5512 H   0  0
    4.3782  -14.9052   -1.4615 H   0  0
    6.3210  -14.8779   -1.9070 H   0  0
  1  2  1  0
  2  3  1  0
  3  4  1  0
  4  5  1  0
  5 10  2  0
  5  6  1  0
  6  7  2  0
  7  8  1  0
  8  9  2  0
  8 15  1  0
  9 10  1  0
 10 11  1  0
 11 12  1  0
 12 13  1  0
 13 14  1  0
 15 16  1  0
 16 17  2  0
 16 18  1  0
 18 19  1  0
 19 20  1  0
 20 21  2  0
 20 22  1  0
 22 23  1  0
 23 28  1  0
 23 24  1  0
 24 25  2  0
 24 26  1  0
 26 27  1  0
 26 30  1  0
 26 31  1  0
 27 28  1  0
 28 29  2  0
 31 33  1  0
 31 32  1  0
 32 33  1  0
  1 34  1  0
  1 35  1  0
  1 36  1  0
  2 37  1  0
  2 38  1  0
  3 39  1  0
  3 40  1  0
  6 41  1  0
  7 42  1  0
  9 43  1  0
 12 44  1  0
 12 45  1  0
 13 46  1  0
 13 47  1  0
 14 48  1  0
 14 49  1  0
 14 50  1  0
 15 51  1  0
 18 52  1  0
 18 53  1  0
 22 54  1  0
 22 55  1  0
 30 56  1  0
 30 57  1  0
 30 58  1  0
 31 59  1  0
 32 60  1  0
 32 61  1  0
 33 62  1  0
 33 63  1  0
M  CHG  1  27  -1
M  END
> <Name>
ZINC29425551

> <reference>
BDB50020402

> <quality>
0.728

> <status>
decoy

$$$$
ZINC21689760
  SciTegic06061311253D

 52 54  0  0  0  0            999 V2000
   -0.5523   11.2742    0.1924 C   0  0
   -1.1872    9.9094    0.1201 C   0  0
   -0.5331    8.7571   -0.0996 C   0  0
   -1.5482    7.6945   -0.0894 C   0  0
   -2.7543    8.3241    0.1517 C   0  0
   -2.5205    9.6460    0.2742 N   0  0
   -3.5018   10.6109    0.5238 C   0  0
   -3.4459   11.6542    1.4849 C   0  0
   -4.6230   12.3029    1.3312 C   0  0
   -5.2861   11.6666    0.3549 O   0  0
   -4.6512   10.7363   -0.0849 N   0  0
   -4.0978    7.6499    0.2595 C   0  0
   -1.3259    6.2607   -0.2878 C   0  0
   -2.2626    5.4903   -0.2477 O   0  0
    0.0660    5.7420   -0.5417 C   0  0
    0.0230    4.2998   -0.7042 O   0  0
    1.1937    3.6754   -0.9398 C   0  0
    2.2223    4.3186   -1.0075 O   0  0
    1.2264    2.2116   -1.1154 C   0  0
    2.4402    1.5622   -1.3598 C   0  0
    2.4658    0.1913   -1.5250 C   0  0
    1.2832   -0.5427   -1.4465 C   0  0
    0.0770    0.1017   -1.2027 C   0  0
    0.0444    1.4704   -1.0378 C   0  0
   -1.3923   -0.8178   -1.1061 Cl  0  0
    1.3105   -1.8909   -1.6082 O   0  0
    1.1488   -2.3881   -2.9382 C   0  0
    1.2060   -3.8940   -2.9219 C   0  0
    1.3691   -4.4833   -1.8745 O   0  0
    1.0758   -4.5858   -4.0712 N   0  0
    3.6450   -0.4428   -1.7637 O   0  0
    4.8174    0.3714   -1.8314 C   0  0
   -0.8816   11.6446    1.1744 H   0  0
   -1.1215   11.8478   -0.5539 H   0  0
    0.5372   11.3103    0.0454 H   0  0
    0.5486    8.6332   -0.2562 H   0  0
   -2.6338   11.8822    2.1909 H   0  0
   -4.9686   13.1808    1.8967 H   0  0
   -3.9236    6.8931    1.0385 H   0  0
   -4.1634    7.0949   -0.6879 H   0  0
   -4.9599    8.3043    0.4557 H   0  0
    0.4675    6.2017   -1.4568 H   0  0
    0.7139    5.9951    0.3105 H   0  0
    3.3730    2.1421   -1.4204 H   0  0
   -0.9119    1.9786   -0.8452 H   0  0
    1.9548   -1.9982   -3.5772 H   0  0
    0.1760   -2.0629   -3.3356 H   0  0
    0.9372   -4.0853   -4.9607 H   0  0
    1.1149   -5.6150   -4.0601 H   0  0
    4.8771    0.9079   -0.8730 H   0  0
    4.6334    1.1133   -2.6224 H   0  0
    5.7296   -0.2115   -2.0269 H   0  0
  1  2  1  0
  2  6  1  0
  2  3  2  0
  3  4  1  0
  4  5  2  0
  4 13  1  0
  5  6  1  0
  5 12  1  0
  6  7  1  0
  7 11  2  0
  7  8  1  0
  8  9  2  0
  9 10  1  0
 10 11  1  0
 13 14  2  0
 13 15  1  0
 15 16  1  0
 16 17  1  0
 17 18  2  0
 17 19  1  0
 19 24  2  0
 19 20  1  0
 20 21  2  0
 21 22  1  0
 21 31  1  0
 22 23  2  0
 22 26  1  0
 23 24  1  0
 23 25  1  0
 26 27  1  0
 27 28  1  0
 28 29  2  0
 28 30  1  0
 31 32  1  0
  1 33  1  0
  1 34  1  0
  1 35  1  0
  3 36  1  0
  8 37  1  0
  9 38  1  0
 12 39  1  0
 12 40  1  0
 12 41  1  0
 15 42  1  0
 15 43  1  0
 20 44  1  0
 24 45  1  0
 27 46  1  0
 27 47  1  0
 30 48  1  0
 30 49  1  0
 32 50  1  0
 32 51  1  0
 32 52  1  0
M  END
> <Name>
ZINC21689760

> <reference>
BDB50020402

> <quality>
0.727

> <status>
decoy

$$$$
ZINC21189907
  SciTegic06061311253D

 56 58  0  0  0  0            999 V2000
    3.3815    3.2294    3.7090 C   0  0
    2.2564    4.1435    3.2196 C   0  0
    1.2752    3.3648    2.5319 O   0  0
    0.2002    4.0297    2.0299 C   0  0
    0.0977    5.3987    2.1915 C   0  0
   -1.0098    6.0801    1.6809 C   0  0
   -2.0081    5.3766    1.0027 C   0  0
   -1.8979    4.0085    0.8384 C   0  0
   -0.7933    3.3317    1.3486 C   0  0
   -0.6875    1.9866    1.1861 O   0  0
   -0.0187    1.5258    0.0104 C   0  0
    0.0021   -0.0041    0.0020 C   0  0
   -2.8694    3.3230    0.1781 O   0  0
   -3.9744    4.0807   -0.3190 C   0  0
   -4.9569    3.1454   -1.0266 C   0  0
   -1.1252    7.5410    1.8582 C   0  0
   -2.0897    8.1330    1.4138 O   0  0
   -0.1614    8.2186    2.5128 N   0  0
   -0.2710    9.6052    2.6810 N   0  0
    0.6928   10.2828    3.3356 C   0  0
    1.6549    9.6923    3.7789 O   0  0
    0.5750   11.7742    3.5166 C   0  0
    1.7397   12.2702    4.2540 N   0  0
    1.6919   12.3313    5.6096 C   0  0
    2.7110   12.7632    6.3031 N   0  0
    3.8266   13.1667    5.7024 C   0  0
    3.9678   13.1454    4.3031 C   0  0
    2.8333   12.6612    3.5736 C   0  0
    2.8584   12.6040    2.3563 O   0  0
    5.2469   13.6188    3.8081 C   0  0
    6.1770   14.0306    4.6844 C   0  0
    5.3830   13.8064    6.2649 S   0  0
    3.8491    2.7287    2.8484 H   0  0
    2.9694    2.4730    4.3931 H   0  0
    4.1372    3.8282    4.2385 H   0  0
    1.7892    4.6435    4.0808 H   0  0
    2.6684    4.9000    2.5355 H   0  0
    0.8875    5.9511    2.7217 H   0  0
   -2.8811    5.9109    0.5998 H   0  0
    1.0135    1.9058    0.0016 H   0  0
   -0.5510    1.8896   -0.8808 H   0  0
   -1.0295   -0.3859    0.0096 H   0  0
    0.5342   -0.3695    0.8927 H   0  0
    0.5168   -0.3595   -0.9028 H   0  0
   -4.4831    4.5802    0.5187 H   0  0
   -3.6115    4.8366   -1.0309 H   0  0
   -5.3218    2.3894   -0.3157 H   0  0
   -4.4496    2.6451   -1.8647 H   0  0
   -5.8078    3.7280   -1.4095 H   0  0
    0.6557    7.7171    2.8894 H   0  0
   -1.0881   10.1067    2.3044 H   0  0
   -0.3407   12.0050    4.0807 H   0  0
    0.5311   12.2610    2.5311 H   0  0
    0.7788   12.0114    6.1330 H   0  0
    5.4522   13.6401    2.7276 H   0  0
    7.1868   14.4143    4.4770 H   0  0
  1  2  1  0
  2  3  1  0
  3  4  1  0
  4  9  2  0
  4  5  1  0
  5  6  2  0
  6  7  1  0
  6 16  1  0
  7  8  2  0
  8  9  1  0
  8 13  1  0
  9 10  1  0
 10 11  1  0
 11 12  1  0
 13 14  1  0
 14 15  1  0
 16 17  2  0
 16 18  1  0
 18 19  1  0
 19 20  1  0
 20 21  2  0
 20 22  1  0
 22 23  1  0
 23 28  1  0
 23 24  1  0
 24 25  2  0
 25 26  1  0
 26 32  1  0
 26 27  2  0
 27 28  1  0
 27 30  1  0
 28 29  2  0
 30 31  2  0
 31 32  1  0
  1 33  1  0
  1 34  1  0
  1 35  1  0
  2 36  1  0
  2 37  1  0
  5 38  1  0
  7 39  1  0
 11 40  1  0
 11 41  1  0
 12 42  1  0
 12 43  1  0
 12 44  1  0
 14 45  1  0
 14 46  1  0
 15 47  1  0
 15 48  1  0
 15 49  1  0
 18 50  1  0
 19 51  1  0
 22 52  1  0
 22 53  1  0
 24 54  1  0
 30 55  1  0
 31 56  1  0
M  END
> <Name>
ZINC21189907

> <reference>
BDB50020402

> <quality>
0.724

> <status>
decoy

$$$$
ZINC21887796
  SciTegic06061311253D

 71 72  0  0  0  0            999 V2000
    0.6070   -8.2382    3.4365 C   0  0
    0.6287   -6.7202    3.2471 C   0  0
    2.0065   -6.0126    4.1915 S   0  0
    3.2459   -6.4166    3.6261 O   0  0
    1.7666   -6.1511    5.5853 O   0  0
    1.9240   -4.3831    3.9084 N   0  0
    1.1293   -3.5106    4.7835 C   0  0
    0.1491   -2.7085    3.9213 C   0  0
    0.9211   -1.9753    2.8249 C   0  0  1  0  0  0
    1.6506   -2.9784    1.9318 C   0  0
    2.6439   -3.7826    2.7769 C   0  0
   -0.0260   -1.1417    1.9970 C   0  0
    0.3714    0.1354    2.1237 C   0  0
    1.5490    0.1902    3.0049 C   0  0
    2.1419    1.2041    3.3143 O   0  0
    1.8716   -1.0499    3.4167 O   0  0
   -0.2809    1.3224    1.4631 C   0  0
   -1.1687   -1.6343    1.2016 C   0  0
   -1.8561   -0.8514    0.5760 O   0  0
   -1.4491   -2.9522    1.1695 N   0  0
   -2.5826   -3.4409    0.3804 C   0  0
   -2.6793   -4.9620    0.5146 C   0  0
   -3.8159   -5.4520   -0.2766 N   0  3
   -3.5875   -5.2416   -1.7124 C   0  0
   -2.1651   -5.6759   -2.0715 C   0  0  1  0  0  0
   -2.0517   -7.1973   -1.9556 C   0  0
   -1.8483   -5.2487   -3.5061 C   0  0
   -4.0870   -6.8667    0.0116 C   0  0
   -5.4431   -7.2569   -0.5796 C   0  0  1  0  0  0
   -5.6812   -8.7531   -0.3660 C   0  0
   -6.5501   -6.4602    0.1140 C   0  0
    0.4785   -8.4740    4.5032 H   0  0
    1.5545   -8.6671    3.0782 H   0  0
   -0.2283   -8.6680    2.8641 H   0  0
   -0.3188   -6.2912    3.6053 H   0  0
    0.7575   -6.4854    2.1802 H   0  0
    0.5684   -4.1236    5.5043 H   0  0
    1.7958   -2.8202    5.3211 H   0  0
   -0.5797   -3.3922    3.4616 H   0  0
   -0.3793   -1.9762    4.5493 H   0  0
    2.1941   -2.4401    1.1413 H   0  0
    0.9201   -3.6624    1.4752 H   0  0
    3.0924   -4.5761    2.1610 H   0  0
    3.4316   -3.1139    3.1541 H   0  0
   -1.3285    1.2394    1.7880 H   0  0
   -0.2695    1.0477    0.3980 H   0  0
    0.1735    2.3016    1.6743 H   0  0
   -0.8665   -3.6158    1.6997 H   0  0
   -3.5115   -2.9811    0.7488 H   0  0
   -2.4363   -3.1754   -0.6770 H   0  0
   -2.8267   -5.2293    1.5714 H   0  0
   -1.7509   -5.4225    0.1459 H   0  0
   -4.6479   -4.9087   -0.0055 H   0  0
   -3.7165   -4.1760   -1.9531 H   0  0
   -4.3092   -5.8380   -2.2899 H   0  0
   -1.4517   -5.2015   -1.3816 H   0  0
   -2.7646   -7.6727   -2.6453 H   0  0
   -2.2791   -7.5055   -0.9244 H   0  0
   -1.0292   -7.5102   -2.2137 H   0  0
   -1.9292   -4.1549   -3.5904 H   0  0
   -2.5611   -5.7229   -4.1969 H   0  0
   -0.8257   -5.5607   -3.7650 H   0  0
   -4.1036   -7.0236    1.1002 H   0  0
   -3.2992   -7.4899   -0.4367 H   0  0
   -5.4511   -7.0345   -1.6569 H   0  0
   -5.6736   -8.9765    0.7110 H   0  0
   -4.8860   -9.3268   -0.8645 H   0  0
   -6.6561   -9.0343   -0.7909 H   0  0
   -6.3801   -5.3843   -0.0392 H   0  0
   -6.5431   -6.6821    1.1914 H   0  0
   -7.5254   -6.7403   -0.3106 H   0  0
  1  2  1  0
  2  3  1  0
  3  4  2  0
  3  5  2  0
  3  6  1  0
  6 11  1  0
  6  7  1  0
  7  8  1  0
  8  9  1  0
  9 16  1  0
  9 10  1  0
  9 12  1  0
 10 11  1  0
 12 13  2  0
 12 18  1  0
 13 14  1  0
 13 17  1  0
 14 15  2  0
 14 16  1  0
 18 19  2  0
 18 20  1  0
 20 21  1  0
 21 22  1  0
 22 23  1  0
 23 24  1  0
 23 28  1  0
 24 25  1  0
 25 26  1  0
 25 27  1  0
 28 29  1  0
 29 30  1  0
 29 31  1  0
  1 32  1  0
  1 33  1  0
  1 34  1  0
  2 35  1  0
  2 36  1  0
  7 37  1  0
  7 38  1  0
  8 39  1  0
  8 40  1  0
 10 41  1  0
 10 42  1  0
 11 43  1  0
 11 44  1  0
 17 45  1  0
 17 46  1  0
 17 47  1  0
 20 48  1  0
 21 49  1  0
 21 50  1  0
 22 51  1  0
 22 52  1  0
 23 53  1  0
 24 54  1  0
 24 55  1  0
 25 56  1  0
 26 57  1  0
 26 58  1  0
 26 59  1  0
 27 60  1  0
 27 61  1  0
 27 62  1  0
 28 63  1  0
 28 64  1  0
 29 65  1  0
 30 66  1  0
 30 67  1  0
 30 68  1  0
 31 69  1  0
 31 70  1  0
 31 71  1  0
M  CHG  1  23   1
M  END
> <Name>
ZINC21887796

> <reference>
BDB50020402

> <quality>
0.721

> <status>
decoy

$$$$
ZINC19924132
  SciTegic06061311253D

 60 62  0  0  0  0            999 V2000
    9.1773   -1.7956   -5.4639 C   0  0
    7.9329   -2.1164   -4.6335 C   0  0
    7.7643   -1.1198   -3.6234 O   0  0
    6.6969   -1.2574   -2.7923 C   0  0
    5.8309   -2.3300   -2.9474 C   0  0
    4.7467   -2.4698   -2.1034 C   0  0
    4.5237   -1.5376   -1.1005 C   0  0
    5.3894   -0.4654   -0.9455 C   0  0
    6.4707   -0.3225   -1.7934 C   0  0
    5.1061    0.7185    0.3284 S   0  0
    6.1334    1.6934    0.2125 O   0  0
    4.8849   -0.0166    1.5242 O   0  0
    3.6824    1.4869   -0.0251 N   0  0
    2.4238    0.7372   -0.0171 C   0  0
    1.2475    1.7155   -0.0006 C   0  0
   -0.0111    0.9658    0.0074 N   0  0
   -1.2257    1.6453    0.0168 C   0  0
   -1.2468    3.0406    0.0303 C   0  0
   -2.4790    3.6708    0.0347 C   0  0
   -3.6225    2.8724    0.0358 C   0  0
   -3.5062    1.5553    0.0276 N   0  0
   -2.3643    0.9696    0.0185 N   0  0
   -4.8910    3.4643    0.0450 N   0  0
   -6.0377    2.9063   -0.4217 C   0  0
   -7.0365    3.7979   -0.2254 C   0  0
   -6.4861    4.9385    0.3695 C   0  0
   -5.2029    4.7404    0.5318 N   0  0
   -7.2421    6.1834    0.7565 C   0  0
   -6.1741    1.5397   -1.0422 C   0  0
    3.4564   -1.6755   -0.2692 O   0  0
    2.6064   -2.8035   -0.4864 C   0  0
    1.4696   -2.7901    0.5375 C   0  0
   10.0622   -1.7833   -4.8106 H   0  0
    9.0588   -0.8102   -5.9382 H   0  0
    9.3076   -2.5624   -6.2417 H   0  0
    7.0485   -2.1281   -5.2875 H   0  0
    8.0513   -3.1018   -4.1592 H   0  0
    6.0078   -3.0692   -3.7426 H   0  0
    4.0600   -3.3203   -2.2264 H   0  0
    7.1523    0.5329   -1.6762 H   0  0
    3.6818    2.4919   -0.2506 H   0  0
    2.3651    0.1093   -0.9184 H   0  0
    2.3815    0.0990    0.8778 H   0  0
    1.3053    2.3435    0.9007 H   0  0
    1.2875    2.3539   -0.8955 H   0  0
    0.0029   -0.0641    0.0061 H   0  0
   -0.3128    3.6217    0.0372 H   0  0
   -2.5542    4.7682    0.0373 H   0  0
   -8.0948    3.6517   -0.4874 H   0  0
   -8.0401    5.7872    1.4016 H   0  0
   -7.7332    6.4671   -0.1860 H   0  0
   -6.6542    6.9915    1.2162 H   0  0
   -5.7440    0.8836   -0.2711 H   0  0
   -5.4342    1.5721   -1.8555 H   0  0
   -7.1840    1.2480   -1.3664 H   0  0
    3.1888   -3.7299   -0.3744 H   0  0
    2.1854   -2.7555   -1.5015 H   0  0
    0.8853   -1.8648    0.4261 H   0  0
    1.8891   -2.8381    1.5533 H   0  0
    0.8149   -3.6582    0.3709 H   0  0
  1  2  1  0
  2  3  1  0
  3  4  1  0
  4  9  2  0
  4  5  1  0
  5  6  2  0
  6  7  1  0
  7  8  2  0
  7 30  1  0
  8  9  1  0
  8 10  1  0
 10 11  2  0
 10 12  2  0
 10 13  1  0
 13 14  1  0
 14 15  1  0
 15 16  1  0
 16 17  1  0
 17 22  2  0
 17 18  1  0
 18 19  2  0
 19 20  1  0
 20 21  2  0
 20 23  1  0
 21 22  1  0
 23 27  1  0
 23 24  1  0
 24 25  2  0
 24 29  1  0
 25 26  1  0
 26 27  2  0
 26 28  1  0
 30 31  1  0
 31 32  1  0
  1 33  1  0
  1 34  1  0
  1 35  1  0
  2 36  1  0
  2 37  1  0
  5 38  1  0
  6 39  1  0
  9 40  1  0
 13 41  1  0
 14 42  1  0
 14 43  1  0
 15 44  1  0
 15 45  1  0
 16 46  1  0
 18 47  1  0
 19 48  1  0
 25 49  1  0
 28 50  1  0
 28 51  1  0
 28 52  1  0
 29 53  1  0
 29 54  1  0
 29 55  1  0
 31 56  1  0
 31 57  1  0
 32 58  1  0
 32 59  1  0
 32 60  1  0
M  END
> <Name>
ZINC19924132

> <reference>
BDB50020402

> <quality>
0.718

> <status>
decoy

$$$$
ZINC31238041
  SciTegic06061311253D

 55 57  0  0  1  0            999 V2000
   -3.0646    1.5439   -2.2614 C   0  0
   -2.6148    1.2268   -0.9426 O   0  0
   -2.8177    2.2742    0.0082 C   0  0
   -2.3019    1.8270    1.3774 C   0  0
   -0.8863    1.6413    1.3158 O   0  0
   -0.2670    1.2418    2.4558 C   0  0
    1.1073    1.0393    2.4555 C   0  0
    1.7302    0.6381    3.6235 C   0  0
    0.9467    0.4405    4.7591 C   0  0
   -0.4208    0.6566    4.6823 C   0  0
   -0.9797    1.0448    3.5518 N   0  0
    1.5336    0.0291    5.9635 N   0  0
    2.5833   -0.8160    5.9474 C   0  0
    3.0738   -1.1539    4.8907 O   0  0
    3.1478   -1.3412    7.2422 C   0  0  2  0  0  0
    3.6293   -0.1699    8.1009 C   0  0
    4.0870   -0.6916    9.4644 C   0  0
    4.6579    0.6971   10.4825 S   0  0
    5.1587   -0.0798   12.0433 C   0  0
    4.2743   -2.2335    6.9576 N   0  0
    4.6236   -3.2122    7.8623 C   0  0
    3.9607   -3.3501    8.9663 N   0  0
    4.6826   -4.6239    9.7771 S   0  0
    5.3095   -4.0980   10.9389 O   0  0
    3.7550   -5.6999    9.8064 O   0  0
    5.9564   -5.0392    8.6173 C   0  0
    5.7497   -4.1162    7.5824 C   0  0
    6.6200   -4.1735    6.4833 C   0  0
    7.6232   -5.1157    6.4395 C   0  0
    7.7988   -6.0175    7.4736 C   0  0
    6.9509   -5.9716    8.5717 C   0  0
   -2.5269    2.4466   -2.5871 H   0  0
   -4.1368    1.7815   -2.1979 H   0  0
   -2.8895    0.7118   -2.9592 H   0  0
   -3.8911    2.5040    0.0788 H   0  0
   -2.2707    3.1727   -0.3135 H   0  0
   -2.5380    2.5962    2.1274 H   0  0
   -2.7833    0.8792    1.6601 H   0  0
    1.6930    1.1961    1.5377 H   0  0
    2.8181    0.4788    3.6554 H   0  0
   -1.0467    0.5027    5.5737 H   0  0
    1.1627    0.3726    6.8609 H   0  0
    2.3679   -1.8966    7.7837 H   0  0
    4.4704    0.3311    7.5994 H   0  0
    2.8063    0.5464    8.2407 H   0  0
    3.2462   -1.1924    9.9667 H   0  0
    4.9109   -1.4073    9.3267 H   0  0
    5.9929   -0.7839   11.9074 H   0  0
    4.3150   -0.5677   12.5534 H   0  0
    5.5169    0.7225   12.7052 H   0  0
    4.8052   -2.1292    6.0812 H   0  0
    6.5003   -3.4624    5.6527 H   0  0
    8.2950   -5.1518    5.5692 H   0  0
    8.6042   -6.7653    7.4261 H   0  0
    7.0803   -6.6832    9.4005 H   0  0
  1  2  1  0
  2  3  1  0
  3  4  1  0
  4  5  1  0
  5  6  1  0
  6 11  2  0
  6  7  1  0
  7  8  2  0
  8  9  1  0
  9 10  2  0
  9 12  1  0
 10 11  1  0
 12 13  1  0
 13 14  2  0
 13 15  1  0
 15 16  1  0
 15 20  1  0
 16 17  1  0
 17 18  1  0
 18 19  1  0
 20 21  1  0
 21 27  1  0
 21 22  2  0
 22 23  1  0
 23 24  2  0
 23 25  2  0
 23 26  1  0
 26 31  2  0
 26 27  1  0
 27 28  2  0
 28 29  1  0
 29 30  2  0
 30 31  1  0
  1 32  1  0
  1 33  1  0
  1 34  1  0
  3 35  1  0
  3 36  1  0
  4 37  1  0
  4 38  1  0
  7 39  1  0
  8 40  1  0
 10 41  1  0
 12 42  1  0
 15 43  1  0
 16 44  1  0
 16 45  1  0
 17 46  1  0
 17 47  1  0
 19 48  1  0
 19 49  1  0
 19 50  1  0
 20 51  1  0
 28 52  1  0
 29 53  1  0
 30 54  1  0
 31 55  1  0
M  END
> <Name>
ZINC31238041

> <reference>
BDB50020402

> <quality>
0.718

> <status>
decoy

$$$$
ZINC20309991
  SciTegic06061311253D

 66 68  0  0  1  0            999 V2000
   -5.9818   -0.0193   -1.0538 C   0  0
   -4.8989    0.1207   -2.0924 C   0  0
   -3.8538    0.9934   -1.8801 C   0  0
   -2.8519    1.1281   -2.8448 C   0  0
   -2.9135    0.3637   -4.0194 C   0  0
   -3.9698   -0.5132   -4.2135 C   0  0
   -4.9560   -0.6324   -3.2539 C   0  0
   -6.1014   -1.5872   -3.4719 C   0  0
   -1.9444    0.4821   -4.9612 O   0  0
   -1.7325    2.0644   -2.6265 C   0  0
   -0.9155    2.2524   -3.5087 O   0  0
   -1.6044    2.7685   -1.3464 C   0  0
   -1.7210    4.1022   -1.1413 C   0  0
   -1.5212    4.3926    0.2941 C   0  0
   -1.5651    5.4989    0.7944 O   0  0
   -1.2835    3.2508    0.9648 N   0  0
   -1.3151    2.1457   -0.0005 C   0  0  2  0  0  0
    0.0187    1.4449   -0.0298 C   0  0
    1.1834    2.1821   -0.1377 C   0  0
    2.4070    1.5418   -0.1705 C   0  0
    2.4665    0.1578   -0.0950 C   0  0
    1.2964   -0.5796    0.0132 C   0  0
    0.0753    0.0655    0.0456 C   0  0
    3.6691   -0.4745   -0.1267 O   0  0
    4.8319    0.3484   -0.2394 C   0  0
    6.0626   -0.5211   -0.2590 C   0  0
    7.0132   -0.2913   -1.1306 C   0  0
   -1.0368    3.1316    2.4040 C   0  0
    0.4642    3.2499    2.6756 C   0  0
    0.7219    3.1255    4.1786 C   0  0
    2.1631    3.2391    4.4394 N   0  3
    2.6530    4.5845    4.1111 C   0  0
    2.4752    2.8905    5.8319 C   0  0
   -1.9795    5.0227   -2.0987 O   0  5
   -5.9955   -1.0886   -0.7960 H   0  0
   -6.9195    0.1995   -1.5857 H   0  0
   -5.8382    0.6237   -0.1730 H   0  0
   -3.8083    1.5831   -0.9526 H   0  0
   -4.0225   -1.1147   -5.1329 H   0  0
   -7.0087   -0.9706   -3.3909 H   0  0
   -6.0851   -2.2589   -2.6010 H   0  0
   -6.0484   -2.1337   -4.4251 H   0  0
   -1.1003    0.2878   -4.4818 H   0  0
   -2.0773    1.3996    0.2686 H   0  0
    1.1356    3.2794   -0.1975 H   0  0
    3.3333    2.1288   -0.2564 H   0  0
    1.3409   -1.6771    0.0731 H   0  0
   -0.8528   -0.5187    0.1315 H   0  0
    4.8819    1.0340    0.6193 H   0  0
    4.7802    0.9308   -1.1711 H   0  0
    6.1627   -1.3488    0.4586 H   0  0
    6.9131    0.5364   -1.8482 H   0  0
    7.9115   -0.9260   -1.1449 H   0  0
   -1.5694    3.9342    2.9352 H   0  0
   -1.3971    2.1549    2.7593 H   0  0
    0.9973    2.4472    2.1451 H   0  0
    0.8261    4.2266    2.3219 H   0  0
    0.3616    2.1488    4.5339 H   0  0
    0.1893    3.9282    4.7097 H   0  0
    2.6492    2.5674    3.8284 H   0  0
    2.1100    5.3197    4.7232 H   0  0
    2.4553    4.7851    3.0478 H   0  0
    3.7324    4.6549    4.3111 H   0  0
    2.1480    1.8576    6.0216 H   0  0
    1.9264    3.5704    6.5001 H   0  0
    3.5566    2.9800    6.0125 H   0  0
  1  2  1  0
  2  7  2  0
  2  3  1  0
  3  4  2  0
  4  5  1  0
  4 10  1  0
  5  6  2  0
  5  9  1  0
  6  7  1  0
  7  8  1  0
 10 11  2  0
 10 12  1  0
 12 17  1  0
 12 13  2  0
 13 14  1  0
 13 34  1  0
 14 15  2  0
 14 16  1  0
 16 17  1  0
 16 28  1  0
 17 18  1  0
 18 23  2  0
 18 19  1  0
 19 20  2  0
 20 21  1  0
 21 22  2  0
 21 24  1  0
 22 23  1  0
 24 25  1  0
 25 26  1  0
 26 27  2  0
 28 29  1  0
 29 30  1  0
 30 31  1  0
 31 32  1  0
 31 33  1  0
  1 35  1  0
  1 36  1  0
  1 37  1  0
  3 38  1  0
  6 39  1  0
  8 40  1  0
  8 41  1  0
  8 42  1  0
  9 43  1  0
 17 44  1  0
 19 45  1  0
 20 46  1  0
 22 47  1  0
 23 48  1  0
 25 49  1  0
 25 50  1  0
 26 51  1  0
 27 52  1  0
 27 53  1  0
 28 54  1  0
 28 55  1  0
 29 56  1  0
 29 57  1  0
 30 58  1  0
 30 59  1  0
 31 60  1  0
 32 61  1  0
 32 62  1  0
 32 63  1  0
 33 64  1  0
 33 65  1  0
 33 66  1  0
M  CHG  2  31   1  34  -1
M  END
> <Name>
ZINC20309991

> <reference>
BDB50020402

> <quality>
0.715

> <status>
decoy

$$$$
ZINC29165768
  SciTegic06061311253D

 56 58  0  0  0  0            999 V2000
   -0.5750    2.5978   -2.2410 C   0  0
   -0.9821    2.4743   -0.8350 N   0  3
   -2.4299    2.2521   -0.7237 C   0  0
   -0.2322    1.4056   -0.1617 C   0  0
   -0.4915    1.4676    1.3216 C   0  0
    0.3276    2.2305    2.1335 C   0  0
    0.0912    2.2958    3.4941 C   0  0
   -0.9617    1.5869    4.0494 C   0  0
   -1.7837    0.8136    3.2328 C   0  0
   -1.5438    0.7575    1.8676 C   0  0
   -2.8504    0.0948    3.7887 N   0  0
   -3.3598   -0.9682    3.1354 C   0  0
   -2.8320   -1.3647    2.1178 O   0  0
   -4.5854   -1.6641    3.6690 C   0  0
   -4.9470   -2.8113    2.7610 C   0  0
   -5.8133   -2.6068    1.7027 C   0  0
   -6.1423   -3.6546    0.8654 C   0  0
   -5.6109   -4.9175    1.0940 C   0  0
   -4.7454   -5.1207    2.1613 C   0  0
   -4.4161   -4.0672    2.9915 C   0  0
   -5.9457   -5.9807    0.2522 N   0  5
   -7.0044   -7.1444    0.7690 S   0  0
   -7.1437   -8.0704   -0.2998 O   0  0
   -6.5755   -7.5366    2.0658 O   0  0
   -8.5735   -6.3685    0.9708 C   0  0
   -9.6074   -6.2938    0.0975 C   0  0
  -10.7573   -5.6263    0.4755 C   0  0
  -10.8170   -5.0662    1.7084 C   0  0
   -9.2171   -5.4837    2.3815 S   0  0
   -1.1923    1.6460    5.3881 O   0  0
   -0.3090    2.4589    6.1633 C   0  0
   -1.1123    3.4443   -2.6936 H   0  0
   -0.8466    1.6736   -2.7722 H   0  0
    0.5103    2.7637   -2.3089 H   0  0
   -0.7609    3.3623   -0.3623 H   0  0
   -2.6905    1.3300   -1.2638 H   0  0
   -2.9563    3.1006   -1.1852 H   0  0
   -2.7200    2.1616    0.3335 H   0  0
    0.8436    1.5358   -0.3508 H   0  0
   -0.5572    0.4289   -0.5497 H   0  0
    1.1695    2.7869    1.6957 H   0  0
    0.7392    2.9107    4.1359 H   0  0
   -2.1910    0.1479    1.2199 H   0  0
   -3.2452    0.3789    4.6966 H   0  0
   -5.4233   -0.9526    3.7111 H   0  0
   -4.3789   -2.0477    4.6791 H   0  0
   -6.2408   -1.6085    1.5276 H   0  0
   -6.8244   -3.4893    0.0184 H   0  0
   -4.3228   -6.1195    2.3451 H   0  0
   -3.7308   -4.2273    3.8369 H   0  0
   -9.5325   -6.7574   -0.8972 H   0  0
  -11.6111   -5.5508   -0.2139 H   0  0
  -11.6382   -4.5011    2.1735 H   0  0
   -0.3657    3.4711    5.7365 H   0  0
    0.7051    2.0729    5.9826 H   0  0
   -0.5586    2.4564    7.2346 H   0  0
  1  2  1  0
  2  3  1  0
  2  4  1  0
  4  5  1  0
  5 10  2  0
  5  6  1  0
  6  7  2  0
  7  8  1  0
  8  9  2  0
  8 30  1  0
  9 10  1  0
  9 11  1  0
 11 12  1  0
 12 13  2  0
 12 14  1  0
 14 15  1  0
 15 20  2  0
 15 16  1  0
 16 17  2  0
 17 18  1  0
 18 19  2  0
 18 21  1  0
 19 20  1  0
 21 22  1  0
 22 23  2  0
 22 24  2  0
 22 25  1  0
 25 29  1  0
 25 26  2  0
 26 27  1  0
 27 28  2  0
 28 29  1  0
 30 31  1  0
  1 32  1  0
  1 33  1  0
  1 34  1  0
  2 35  1  0
  3 36  1  0
  3 37  1  0
  3 38  1  0
  4 39  1  0
  4 40  1  0
  6 41  1  0
  7 42  1  0
 10 43  1  0
 11 44  1  0
 14 45  1  0
 14 46  1  0
 16 47  1  0
 17 48  1  0
 19 49  1  0
 20 50  1  0
 26 51  1  0
 27 52  1  0
 28 53  1  0
 31 54  1  0
 31 55  1  0
 31 56  1  0
M  CHG  2   2   1  21  -1
M  END
> <Name>
ZINC29165768

> <reference>
BDB50020402

> <quality>
0.708

> <status>
decoy

$$$$
ZINC12218743
  SciTegic06061311253D

 55 57  0  0  1  0            999 V2000
    2.3933   -2.9945   -0.0369 C   0  0
    1.0581   -2.2476   -0.0201 C   0  0
    1.3172   -0.7397   -0.0145 C   0  0
    0.0021   -0.0041    0.0020 C   0  0
   -1.0397   -0.6246    0.0086 O   0  0
   -0.0162    1.3436    0.0094 N   0  0
   -1.2227    2.0184    0.0188 C   0  0
   -1.4408    3.3261    0.0270 N   0  0
   -2.6483    3.8377    0.0353 C   0  0
   -3.6964    2.9077    0.0323 C   0  0
   -2.8346    1.3644    0.0152 S   0  0
   -5.0524    3.2167    0.0343 C   0  0
   -5.9002    2.3468    0.0516 O   0  0
   -5.4279    4.6873    0.0145 C   0  0
   -4.3469    5.4952    0.7333 C   0  0  1  0  0  0
   -2.9871    5.3231    0.0510 C   0  0
   -4.7276    6.9532    0.7170 C   0  0
   -3.9854    7.7681    0.2111 O   0  0
   -5.8928    7.3516    1.2648 N   0  0
   -6.2629    8.7690    1.2490 C   0  0
   -7.6214    8.9490    1.9294 C   0  0
   -8.0021   10.4070    1.9132 C   0  0
   -8.6713   11.0655    1.0031 N   0  0
   -8.9165   12.3667    1.1673 C   0  0
   -8.4340   12.9641    2.3048 C   0  0
   -7.6548   11.6292    3.0931 S   0  0
   -9.6711   13.1336    0.1639 C   0  0
   -9.8773   14.3193    0.3342 O   0  0
  -10.1340   12.5212   -0.9442 O   0  0
  -10.8702   13.3398   -1.8909 C   0  0
  -11.3121   12.4776   -3.0750 C   0  0
    2.9757   -2.7266    0.8570 H   0  0
    2.9585   -2.7170   -0.9388 H   0  0
    2.2077   -4.0787   -0.0409 H   0  0
    0.4765   -2.5158   -0.9144 H   0  0
    0.4928   -2.5251    0.8818 H   0  0
    1.8815   -0.4601   -0.9164 H   0  0
    1.8984   -0.4707    0.8798 H   0  0
    0.8687    1.8707    0.0081 H   0  0
   -6.3914    4.8282    0.5261 H   0  0
   -5.5107    5.0311   -1.0271 H   0  0
   -4.2671    5.1304    1.7680 H   0  0
   -2.2187    5.8719    0.6153 H   0  0
   -3.0410    5.7023   -0.9802 H   0  0
   -6.5231    6.6595    1.6946 H   0  0
   -5.5028    9.3526    1.7890 H   0  0
   -6.3251    9.1213    0.2088 H   0  0
   -8.3821    8.3660    1.3896 H   0  0
   -7.5608    8.5982    2.9702 H   0  0
   -8.5188   14.0114    2.6304 H   0  0
  -11.7562   13.7650   -1.3968 H   0  0
  -10.2253   14.1545   -2.2520 H   0  0
  -11.9581   11.6629   -2.7158 H   0  0
  -10.4270   12.0517   -3.5703 H   0  0
  -11.8699   13.0972   -3.7926 H   0  0
  1  2  1  0
  2  3  1  0
  3  4  1  0
  4  5  2  0
  4  6  1  0
  6  7  1  0
  7 11  1  0
  7  8  2  0
  8  9  1  0
  9 16  1  0
  9 10  2  0
 10 11  1  0
 10 12  1  0
 12 13  2  0
 12 14  1  0
 14 15  1  0
 15 16  1  0
 15 17  1  0
 17 18  2  0
 17 19  1  0
 19 20  1  0
 20 21  1  0
 21 22  1  0
 22 26  1  0
 22 23  2  0
 23 24  1  0
 24 25  2  0
 24 27  1  0
 25 26  1  0
 27 28  2  0
 27 29  1  0
 29 30  1  0
 30 31  1  0
  1 32  1  0
  1 33  1  0
  1 34  1  0
  2 35  1  0
  2 36  1  0
  3 37  1  0
  3 38  1  0
  6 39  1  0
 14 40  1  0
 14 41  1  0
 15 42  1  0
 16 43  1  0
 16 44  1  0
 19 45  1  0
 20 46  1  0
 20 47  1  0
 21 48  1  0
 21 49  1  0
 25 50  1  0
 30 51  1  0
 30 52  1  0
 31 53  1  0
 31 54  1  0
 31 55  1  0
M  END
> <Name>
ZINC12218743

> <reference>
BDB50020402

> <quality>
0.708

> <status>
decoy

$$$$
ZINC10034145
  SciTegic06061311253D

 60 62  0  0  0  0            999 V2000
   -7.3140    2.8577   -4.4716 C   0  0
   -7.6481    3.6274   -3.1922 C   0  0
   -6.5448    3.5491   -2.2874 O   0  0
   -6.7999    4.1323   -1.0080 C   0  0  2  0  0  0
   -5.4817    4.6022   -0.3897 C   0  0
   -4.5801    3.4581   -0.2339 N   0  0
   -3.3526    3.6344    0.2941 C   0  0
   -2.9942    4.7410    0.6405 O   0  0
   -2.4338    2.4684    0.4529 C   0  0
   -2.7923    1.3615    0.1065 O   0  0
   -1.2064    2.6447    0.9809 N   0  0
   -0.3874    1.5453    1.2201 C   0  0
   -0.8066    0.2586    1.4757 C   0  0
    0.3198   -0.5271    1.6501 C   0  0
    1.3901    0.2420    1.5081 N   0  0
    0.9691    1.5452    1.2381 N   0  0
    1.7988    2.6542    1.0240 C   0  0
    1.5368    3.5271   -0.0238 C   0  0
    2.3528    4.6222   -0.2287 C   0  0
    3.4367    4.8437    0.6013 C   0  0
    3.7034    3.9732    1.6419 C   0  0
    2.8875    2.8792    1.8555 C   0  0
    3.1793    1.9306    2.9895 C   0  0
    4.3291    6.0359    0.3708 C   0  0
    0.0858   -2.0073    1.9473 C   0  0
   -1.6924   -2.0202    2.4189 S   0  0
   -1.8075   -1.8725    3.8276 O   0  0
   -2.3453   -3.1003    1.7660 O   0  0
   -2.1589   -0.4402    1.5997 C   0  0
   -7.4068    3.1604   -0.1540 O   0  0
   -8.7159    2.7617   -0.5654 C   0  0
   -9.3341    1.8596    0.5046 C   0  0
   -7.1164    1.8039   -4.2257 H   0  0
   -6.4224    3.2970   -4.9428 H   0  0
   -8.1629    2.9176   -5.1686 H   0  0
   -7.8452    4.6811   -3.4389 H   0  0
   -8.5397    3.1881   -2.7210 H   0  0
   -7.4768    4.9914   -1.1250 H   0  0
   -5.0141    5.3499   -1.0472 H   0  0
   -5.6769    5.0510    0.5954 H   0  0
   -4.8842    2.5190   -0.5279 H   0  0
   -0.8745    3.5931    1.2074 H   0  0
    0.6802    3.3464   -0.6898 H   0  0
    2.1405    5.3190   -1.0529 H   0  0
    4.5662    4.1520    2.3004 H   0  0
    3.2784    0.9424    2.5165 H   0  0
    2.2580    1.9121    3.5902 H   0  0
    4.0640    2.2043    3.5832 H   0  0
    3.6581    6.9068    0.4057 H   0  0
    4.6783    5.9356   -0.6675 H   0  0
    5.1592    6.1153    1.0881 H   0  0
    0.2371   -2.6144    1.0425 H   0  0
    0.7005   -2.3361    2.7982 H   0  0
   -2.8349    0.1333    2.2509 H   0  0
   -2.5842   -0.6456    0.6063 H   0  0
   -9.3454    3.6536   -0.7007 H   0  0
   -8.6511    2.2110   -1.5154 H   0  0
   -9.4007    2.4091    1.4552 H   0  0
   -8.7057    0.9671    0.6410 H   0  0
  -10.3419    1.5523    0.1885 H   0  0
  1  2  1  0
  2  3  1  0
  3  4  1  0
  4  5  1  0
  4 30  1  0
  5  6  1  0
  6  7  1  0
  7  8  2  0
  7  9  1  0
  9 10  2  0
  9 11  1  0
 11 12  1  0
 12 16  1  0
 12 13  2  0
 13 29  1  0
 13 14  1  0
 14 15  2  0
 14 25  1  0
 15 16  1  0
 16 17  1  0
 17 22  2  0
 17 18  1  0
 18 19  2  0
 19 20  1  0
 20 21  2  0
 20 24  1  0
 21 22  1  0
 22 23  1  0
 25 26  1  0
 26 27  2  0
 26 28  2  0
 26 29  1  0
 30 31  1  0
 31 32  1  0
  1 33  1  0
  1 34  1  0
  1 35  1  0
  2 36  1  0
  2 37  1  0
  4 38  1  0
  5 39  1  0
  5 40  1  0
  6 41  1  0
 11 42  1  0
 18 43  1  0
 19 44  1  0
 21 45  1  0
 23 46  1  0
 23 47  1  0
 23 48  1  0
 24 49  1  0
 24 50  1  0
 24 51  1  0
 25 52  1  0
 25 53  1  0
 29 54  1  0
 29 55  1  0
 31 56  1  0
 31 57  1  0
 32 58  1  0
 32 59  1  0
 32 60  1  0
M  END
> <Name>
ZINC10034145

> <reference>
BDB50020402

> <quality>
0.698

> <status>
decoy

$$$$
ZINC25210044
  SciTegic06061311253D

 52 53  0  0  0  0            999 V2000
   -8.6205   13.0542   -7.8972 C   0  0
   -7.1783   12.7324   -8.2939 C   0  0
   -6.6023   11.8176   -7.3245 O   0  0
   -5.3276   11.4317   -7.5297 C   0  0
   -4.7140   11.8484   -8.4924 O   0  0
   -4.6779   10.5051   -6.5872 C   0  0
   -4.6697    9.0961   -6.6691 C   0  0
   -3.9519    8.6378   -5.5856 C   0  0
   -3.5238    9.7325   -4.8625 N   0  0
   -3.9562   10.8532   -5.4586 C   0  0
   -3.6984   12.2586   -4.9796 C   0  0
   -3.6938    7.2816   -5.2725 C   0  0
   -4.1250    6.4007   -5.9882 O   0  0
   -2.8837    6.9313   -4.0510 C   0  0
   -2.7601    5.4881   -3.9497 O   0  0
   -2.0624    5.0078   -2.9085 C   0  0
   -1.5712    5.7681   -2.1082 O   0  0
   -1.8917    3.5203   -2.7377 C   0  0
   -1.1172    3.2613   -1.5650 O   0  0
   -0.8975    1.8855   -1.3122 N   0  0
   -0.0172    1.4168    0.0098 S   0  0
    0.0021   -0.0041    0.0020 O   0  0
    1.1718    2.1948    0.0027 O   0  0
   -0.9267    1.9002    1.4394 C   0  0
   -0.7167    3.1448    2.0035 C   0  0
   -1.4330    3.5269    3.1219 C   0  0
   -2.3536    2.6586    3.6837 C   0  0
   -2.5593    1.4104    3.1210 C   0  0
   -1.8457    1.0325    1.9995 C   0  0
   -3.0510    3.0293    4.7798 F   0  0
   -5.3230    8.2545   -7.7349 C   0  0
   -8.6324   13.5212   -6.9013 H   0  0
   -9.2111   12.1265   -7.8736 H   0  0
   -9.0575   13.7472   -8.6312 H   0  0
   -7.1673   12.2652   -9.2897 H   0  0
   -6.5877   13.6601   -8.3175 H   0  0
   -2.9609    9.6947   -4.0008 H   0  0
   -4.7128   12.6771   -4.9033 H   0  0
   -3.2428   12.7338   -5.8608 H   0  0
   -3.1033   12.3593   -4.0600 H   0  0
   -1.8826    7.3796   -4.1338 H   0  0
   -3.3861    7.3195   -3.1527 H   0  0
   -2.8795    3.0470   -2.6361 H   0  0
   -1.3753    3.1061   -3.6162 H   0  0
   -1.2852    1.1762   -1.9506 H   0  0
    0.0208    3.8312    1.5620 H   0  0
   -1.2718    4.5205    3.5656 H   0  0
   -3.2905    0.7198    3.5665 H   0  0
   -2.0090    0.0409    1.5523 H   0  0
   -4.8942    8.6742   -8.6568 H   0  0
   -6.3634    8.6104   -7.7058 H   0  0
   -5.2161    7.1636   -7.6430 H   0  0
  1  2  1  0
  2  3  1  0
  3  4  1  0
  4  5  2  0
  4  6  1  0
  6 10  2  0
  6  7  1  0
  7  8  2  0
  7 31  1  0
  8  9  1  0
  8 12  1  0
  9 10  1  0
 10 11  1  0
 12 13  2  0
 12 14  1  0
 14 15  1  0
 15 16  1  0
 16 17  2  0
 16 18  1  0
 18 19  1  0
 19 20  1  0
 20 21  1  0
 21 22  2  0
 21 23  2  0
 21 24  1  0
 24 29  2  0
 24 25  1  0
 25 26  2  0
 26 27  1  0
 27 28  2  0
 27 30  1  0
 28 29  1  0
  1 32  1  0
  1 33  1  0
  1 34  1  0
  2 35  1  0
  2 36  1  0
  9 37  1  0
 11 38  1  0
 11 39  1  0
 11 40  1  0
 14 41  1  0
 14 42  1  0
 18 43  1  0
 18 44  1  0
 20 45  1  0
 25 46  1  0
 26 47  1  0
 28 48  1  0
 29 49  1  0
 31 50  1  0
 31 51  1  0
 31 52  1  0
M  END
> <Name>
ZINC25210044

> <reference>
BDB50020402

> <quality>
0.692

> <status>
decoy

$$$$
ZINC16559166
  SciTegic06061311253D

 58 60  0  0  1  0            999 V2000
    2.3305    0.7521   -1.0717 C   0  0
    1.6274    1.6564   -0.0575 C   0  0
   -0.1896    0.0607    0.0642 C   0  0
    0.1251   -0.3215    1.4875 C   0  0
   -0.1428   -1.5924    1.8885 N   0  0
    0.1219   -1.9854    3.1560 C   0  0
   -0.1129   -3.1208    3.5278 O   0  0
    0.7035   -0.9901    4.0661 C   0  0
    1.0125   -1.2972    5.3915 C   0  0
    1.5585   -0.3265    6.2053 C   0  0
    1.8013    0.9589    5.7092 C   0  0
    1.5001    1.2766    4.3991 C   0  0
    0.9480    0.3073    3.5616 C   0  0
    0.6430    0.5781    2.2668 N   0  0
    2.3389    1.9035    6.5236 O   0  0
    2.5633    3.1964    5.9577 C   0  0
    1.8625   -0.6207    7.4978 O   0  0
    1.5898   -1.9513    7.9417 C   0  0
   -0.3316    1.9438   -1.4512 C   0  0
   -0.3020    3.4503   -1.4775 C   0  0
    0.0042    4.0684   -0.4798 O   0  0
   -0.6159    4.1108   -2.6096 N   0  0
   -0.4852    5.5028   -2.6666 C   0  0
   -0.6093    6.2614   -1.5098 C   0  0
   -0.4745    7.6345   -1.5685 C   0  0
   -0.2267    8.2553   -2.7793 C   0  0
   -0.1083    7.5035   -3.9336 C   0  0
   -0.2368    6.1292   -3.8807 C   0  0
   -0.1072    5.3104   -5.1392 C   0  0
   -0.6010    8.4432   -0.3353 N   0  0
   -0.4869    9.6547   -0.3871 O   0  0
   -0.8193    7.8971    0.7313 O   0  0
    0.1617    1.4823   -0.1366 N   0  0
    1.9846    1.0100   -2.0835 H   0  0
    2.0735   -0.2958   -0.8575 H   0  0
    3.4199    0.8890   -1.0049 H   0  0
    1.8801    2.7062   -0.2673 H   0  0
    1.9693    1.4014    0.9564 H   0  0
   -1.2630   -0.0834   -0.1282 H   0  0
    0.3987   -0.5643   -0.6237 H   0  0
   -0.5511   -2.2625    1.2213 H   0  0
    0.8220   -2.3066    5.7849 H   0  0
    1.6948    2.2899    4.0178 H   0  0
    1.5884    3.5448    5.5859 H   0  0
    3.2208    3.0440    5.0891 H   0  0
    2.9996    3.9055    6.6766 H   0  0
    2.1487   -2.6214    7.2719 H   0  0
    0.5166   -2.1208    7.7698 H   0  0
    1.8617   -2.1125    8.9953 H   0  0
   -1.3632    1.5927   -1.6011 H   0  0
    0.3162    1.5475   -2.2470 H   0  0
   -0.9520    3.5909   -3.4328 H   0  0
   -0.8147    5.7690   -0.5479 H   0  0
   -0.1236    9.3495   -2.8240 H   0  0
    0.0884    8.0003   -4.8951 H   0  0
   -1.0457    4.7407   -5.2068 H   0  0
    0.6961    4.5890   -4.9288 H   0  0
    0.0889    5.9080   -6.0416 H   0  0
  1  2  1  0
  2 33  1  0
  3  4  1  0
  3 33  1  0
  4 14  2  0
  4  5  1  0
  5  6  1  0
  6  7  2  0
  6  8  1  0
  8 13  2  0
  8  9  1  0
  9 10  2  0
 10 11  1  0
 10 17  1  0
 11 12  2  0
 11 15  1  0
 12 13  1  0
 13 14  1  0
 15 16  1  0
 17 18  1  0
 19 20  1  0
 19 33  1  0
 20 21  2  0
 20 22  1  0
 22 23  1  0
 23 28  2  0
 23 24  1  0
 24 25  2  0
 25 26  1  0
 25 30  1  0
 26 27  2  0
 27 28  1  0
 28 29  1  0
 30 31  2  0
 30 32  2  0
  1 34  1  0
  1 35  1  0
  1 36  1  0
  2 37  1  0
  2 38  1  0
  3 39  1  0
  3 40  1  0
  5 41  1  0
  9 42  1  0
 12 43  1  0
 16 44  1  0
 16 45  1  0
 16 46  1  0
 18 47  1  0
 18 48  1  0
 18 49  1  0
 19 50  1  0
 19 51  1  0
 22 52  1  0
 24 53  1  0
 26 54  1  0
 27 55  1  0
 29 56  1  0
 29 57  1  0
 29 58  1  0
M  END
> <Name>
ZINC16559166

> <reference>
BDB50020402

> <quality>
0.690

> <status>
decoy

$$$$
ZINC24479167
  SciTegic06061311253D

 56 58  0  0  0  0            999 V2000
   -5.1841    5.3712    0.3523 C   0  0
   -5.1288    3.9477    0.2399 O   0  0
   -3.8988    3.3706    0.3026 C   0  0
   -2.7708    4.1569    0.4690 C   0  0
   -1.5214    3.5683    0.5386 C   0  0
   -1.3927    2.1960    0.4312 C   0  0
   -2.5134    1.4042    0.2651 C   0  0
   -3.7705    1.9872    0.2000 C   0  0
   -4.9069    1.1877    0.0313 N   0  5
   -4.9803   -0.3071    0.7401 S   0  0
   -6.2887   -0.8067    0.5000 O   0  0
   -3.8116   -1.0065    0.3349 O   0  0
   -4.8449   -0.0658    2.4802 C   0  0
   -3.5989   -0.0734    3.0817 C   0  0
   -3.4855    0.1207    4.4429 C   0  0
   -4.6320    0.3139    5.2150 C   0  0
   -5.8863    0.3148    4.6028 C   0  0
   -5.9854    0.1248    3.2400 C   0  0
   -4.5183    0.5174    6.6750 C   0  0
   -5.5185    0.6859    7.3449 O   0  0
   -3.3057    0.5161    7.2632 N   0  0
   -3.1930    0.7177    8.7098 C   0  0
   -1.7192    0.6716    9.1180 C   0  0
   -1.6015    0.8821   10.6288 C   0  0
   -0.2250    0.8391   11.0100 O   0  0
   -0.0032    1.0260   12.4092 C   0  0
    1.4973    0.9612   12.7009 C   0  0  2  0  0  0
    1.9951   -0.1781   13.5928 C   0  0
    1.9521    1.2538   14.1322 C   0  0
   -0.0521    1.5726    0.5005 N   0  0
    0.0625    0.3633    0.4110 O   0  0
    0.9369    2.2693    0.6419 O   0  0
   -4.5505    5.7699   -0.4537 H   0  0
   -4.7088    5.6243    1.3115 H   0  0
   -6.2101    5.7632    0.2926 H   0  0
   -2.8688    5.2498    0.5458 H   0  0
   -0.6275    4.1937    0.6798 H   0  0
   -2.4085    0.3122    0.1846 H   0  0
   -2.6968   -0.2346    2.4733 H   0  0
   -2.4937    0.1232    4.9186 H   0  0
   -6.7938    0.4667    5.2056 H   0  0
   -6.9734    0.1248    2.7563 H   0  0
   -2.4582    0.3734    6.6956 H   0  0
   -3.6167    1.6968    8.9778 H   0  0
   -3.7434   -0.0763    9.2358 H   0  0
   -1.2950   -0.3075    8.8506 H   0  0
   -1.1674    1.4658    8.5938 H   0  0
   -2.0252    1.8612   10.8968 H   0  0
   -2.1518    0.0880   11.1547 H   0  0
   -0.5199    0.2349   12.9724 H   0  0
   -0.3934    2.0081   12.7145 H   0  0
    1.7659    1.3443   11.7054 H   0  0
    3.0201   -0.4784   13.3298 H   0  0
    1.1604   -0.7799   13.9815 H   0  0
    1.0952    1.4046   14.8052 H   0  0
    2.9543    1.7067   14.1521 H   0  0
  1  2  1  0
  2  3  1  0
  3  8  2  0
  3  4  1  0
  4  5  2  0
  5  6  1  0
  6  7  2  0
  6 30  1  0
  7  8  1  0
  8  9  1  0
  9 10  1  0
 10 11  2  0
 10 12  2  0
 10 13  1  0
 13 18  2  0
 13 14  1  0
 14 15  2  0
 15 16  1  0
 16 17  2  0
 16 19  1  0
 17 18  1  0
 19 20  2  0
 19 21  1  0
 21 22  1  0
 22 23  1  0
 23 24  1  0
 24 25  1  0
 25 26  1  0
 26 27  1  0
 27 29  1  0
 27 28  1  0
 28 29  1  0
 30 31  2  0
 30 32  2  0
  1 33  1  0
  1 34  1  0
  1 35  1  0
  4 36  1  0
  5 37  1  0
  7 38  1  0
 14 39  1  0
 15 40  1  0
 17 41  1  0
 18 42  1  0
 21 43  1  0
 22 44  1  0
 22 45  1  0
 23 46  1  0
 23 47  1  0
 24 48  1  0
 24 49  1  0
 26 50  1  0
 26 51  1  0
 27 52  1  0
 28 53  1  0
 28 54  1  0
 29 55  1  0
 29 56  1  0
M  CHG  1   9  -1
M  END
> <Name>
ZINC24479167

> <reference>
BDB50020402

> <quality>
0.688

> <status>
decoy

$$$$
ZINC17013067
  SciTegic06061311253D

 48 49  0  0  1  0            999 V2000
    7.7209   -0.4784   -0.1920 C   0  0
    7.1647    0.1635    1.0806 C   0  0  1  0  0  0
    8.2728    0.8825    1.8061 C   0  0
    8.1918    2.0759    2.0070 O   0  0
    9.3539    0.1994    2.2317 N   0  0
   10.4349    0.8834    2.8005 C   0  0
   10.6640    2.2218    2.4941 C   0  0
   11.7434    2.8575    3.0864 C   0  0
   12.5578    2.1456    3.9468 C   0  0
   12.3177    0.8763    4.2131 N   0  0
   11.2987    0.2345    3.6752 C   0  0
   11.0333   -1.4365    4.0638 Cl  0  0
    6.1221    1.1109    0.7290 O   0  0
    4.8672    0.6392    0.6628 C   0  0
    4.6472   -0.5268    0.8911 O   0  0
    3.7326    1.5637    0.3037 C   0  0
    2.4184    0.7803    0.2985 C   0  0
    1.2665    1.7189   -0.0661 C   0  0
    0.0081    0.9688   -0.0710 N   0  0
   -1.4374    1.7766   -0.0699 S   0  0
   -2.4560    0.7866   -0.1092 O   0  0
   -1.3589    2.7482    0.9640 O   0  0
   -1.5393    2.6644   -1.5886 C   0  0
   -2.5105    2.3373   -2.5162 C   0  0
   -2.5921    3.0333   -3.7072 C   0  0
   -1.7005    4.0591   -3.9729 C   0  0
   -0.7274    4.3872   -3.0451 C   0  0
   -0.6502    3.6930   -1.8498 C   0  0
    0.2957    4.0158   -0.9407 F   0  0
   -1.7802    4.7391   -5.1376 F   0  0
    8.5108   -1.1965    0.0733 H   0  0
    8.1396    0.3018   -0.8446 H   0  0
    6.9126   -1.0034   -0.7221 H   0  0
    6.7459   -0.6175    1.7323 H   0  0
    9.3848   -0.8259    2.1385 H   0  0
   10.0043    2.7616    1.7988 H   0  0
   11.9498    3.9169    2.8742 H   0  0
   13.4184    2.6447    4.4161 H   0  0
    3.6722    2.3751    1.0440 H   0  0
    3.9080    1.9906   -0.6948 H   0  0
    2.4779   -0.0310   -0.4419 H   0  0
    2.2407    0.3535    1.2966 H   0  0
    1.4419    2.1458   -1.0646 H   0  0
    1.2062    2.5303    0.6741 H   0  0
    0.0225   -0.0611   -0.0751 H   0  0
   -3.2189    1.5224   -2.3062 H   0  0
   -3.3656    2.7724   -4.4445 H   0  0
   -0.0159    5.1989   -3.2572 H   0  0
  1  2  1  0
  2  3  1  0
  2 13  1  0
  3  4  2  0
  3  5  1  0
  5  6  1  0
  6 11  2  0
  6  7  1  0
  7  8  2  0
  8  9  1  0
  9 10  2  0
 10 11  1  0
 11 12  1  0
 13 14  1  0
 14 15  2  0
 14 16  1  0
 16 17  1  0
 17 18  1  0
 18 19  1  0
 19 20  1  0
 20 21  2  0
 20 22  2  0
 20 23  1  0
 23 28  2  0
 23 24  1  0
 24 25  2  0
 25 26  1  0
 26 27  2  0
 26 30  1  0
 27 28  1  0
 28 29  1  0
  1 31  1  0
  1 32  1  0
  1 33  1  0
  2 34  1  0
  5 35  1  0
  7 36  1  0
  8 37  1  0
  9 38  1  0
 16 39  1  0
 16 40  1  0
 17 41  1  0
 17 42  1  0
 18 43  1  0
 18 44  1  0
 19 45  1  0
 24 46  1  0
 25 47  1  0
 27 48  1  0
M  END
> <Name>
ZINC17013067

> <reference>
BDB50020402

> <quality>
0.688

> <status>
decoy

$$$$
ZINC25264159
  SciTegic06061311253D

 50 52  0  0  0  0            999 V2000
   -8.4019    1.4542    0.9003 C   0  0
   -9.5764    0.9092    0.4147 C   0  0
   -9.5675   -0.3332   -0.1914 C   0  0
   -8.3799   -1.0362   -0.3137 C   0  0
   -7.1963   -0.4877    0.1749 C   0  0
   -7.2139    0.7573    0.7866 C   0  0
   -5.9922   -1.1940    0.0539 N   0  0
   -4.8191   -0.5304    0.0499 C   0  0
   -4.8085    0.6825    0.0497 O   0  0
   -3.5207   -1.2953    0.0456 C   0  0
   -2.4088   -0.3614    0.0417 O   0  0
   -1.1669   -0.8879    0.0376 C   0  0
   -1.0181   -2.0950    0.0373 O   0  0
    0.0026   -0.0058    0.0336 C   0  0
    1.3243   -0.4025    0.0292 C   0  0
    2.0995    0.7608    0.0269 C   0  0
    1.2565    1.8214    0.0298 C   0  0
   -0.0158    1.3711    0.0339 N   0  0
    3.8599    0.8346    0.0220 S   0  0
    4.2151    2.0959    0.5717 O   0  0
    4.3194   -0.3926    0.5718 O   0  0
    4.3448    0.8549   -1.5613 N   0  0
    4.6253   -0.3961   -2.2837 C   0  0
    3.8499   -0.3673   -3.6106 C   0  0
    4.1509    0.8465   -4.3033 O   0  0
    3.7489    2.0308   -3.6108 C   0  0
    4.5137    2.1246   -2.2855 C   0  0
   -8.3697   -2.2588   -0.9088 O   0  0
   -9.6205   -2.7584   -1.3861 C   0  0  1  0  0  0
  -10.5172   -2.8678   -0.3178 F   0  0
  -10.1396   -1.8791   -2.3424 F   0  0
   -8.4132    2.4449    1.3783 H   0  0
  -10.5203    1.4658    0.5110 H   0  0
  -10.5035   -0.7638   -0.5767 H   0  0
   -6.2825    1.1897    1.1810 H   0  0
   -6.0036   -2.2203   -0.0320 H   0  0
   -3.4646   -1.9277    0.9439 H   0  0
   -3.4699   -1.9285   -0.8524 H   0  0
    1.6970   -1.4374    0.0278 H   0  0
    1.5600    2.8787    0.0290 H   0  0
   -0.8608    1.9600    0.0368 H   0  0
    4.2940   -1.2549   -1.6815 H   0  0
    5.7035   -0.4720   -2.4879 H   0  0
    4.1481   -1.2266   -4.2292 H   0  0
    2.7699   -0.4156   -3.4074 H   0  0
    3.9757    2.9125   -4.2282 H   0  0
    2.6684    1.9905   -3.4083 H   0  0
    4.1075    2.9506   -1.6832 H   0  0
    5.5812    2.2969   -2.4876 H   0  0
   -9.4702   -3.7483   -1.8415 H   0  0
  1  6  2  0
  1  2  1  0
  2  3  2  0
  3  4  1  0
  4  5  2  0
  4 28  1  0
  5  6  1  0
  5  7  1  0
  7  8  1  0
  8  9  2  0
  8 10  1  0
 10 11  1  0
 11 12  1  0
 12 13  2  0
 12 14  1  0
 14 18  1  0
 14 15  2  0
 15 16  1  0
 16 17  2  0
 16 19  1  0
 17 18  1  0
 19 20  2  0
 19 21  2  0
 19 22  1  0
 22 27  1  0
 22 23  1  0
 23 24  1  0
 24 25  1  0
 25 26  1  0
 26 27  1  0
 28 29  1  0
 29 30  1  0
 29 31  1  0
  1 32  1  0
  2 33  1  0
  3 34  1  0
  6 35  1  0
  7 36  1  0
 10 37  1  0
 10 38  1  0
 15 39  1  0
 17 40  1  0
 18 41  1  0
 23 42  1  0
 23 43  1  0
 24 44  1  0
 24 45  1  0
 26 46  1  0
 26 47  1  0
 27 48  1  0
 27 49  1  0
 29 50  1  0
M  END
> <Name>
ZINC25264159

> <reference>
BDB50020402

> <quality>
0.688

> <status>
decoy

$$$$
ZINC25133157
  SciTegic06061311253D

 49 50  0  0  1  0            999 V2000
   -0.0178    1.4608    0.0101 C   0  0
    0.0021   -0.0041    0.0020 N   0  0
    0.0234   -0.7186    1.2243 O   0  0
   -1.2731   -1.0296    1.7384 C   0  0
   -0.0004   -0.8243   -1.4366 S   0  0
   -0.6385   -2.0703   -1.1926 O   0  0
   -0.4624    0.0879   -2.4234 O   0  0
    1.6778   -1.1869   -1.8324 C   0  0
    2.4185   -0.2924   -2.5850 C   0  0
    3.7381   -0.5673   -2.8960 C   0  0
    4.3213   -1.7415   -2.4660 C   0  0
    3.5784   -2.6503   -1.7111 C   0  0
    2.2488   -2.3644   -1.3963 C   0  0
    4.1967   -3.9107   -1.2474 C   0  0
    3.5470   -4.7006   -0.5905 O   0  0
    5.4806   -4.1838   -1.5531 N   0  0
    6.0932   -5.4327   -1.0936 C   0  0
    7.5450   -5.4950   -1.5726 C   0  0
    8.1576   -6.7439   -1.1131 N   0  0
    9.5831   -7.2609   -1.7788 S   0  0
    9.9273   -8.4687   -1.1141 O   0  0
    9.4236   -7.1860   -3.1888 O   0  0
   10.8177   -6.0797   -1.3483 C   0  0
   11.0637   -5.0028   -2.1797 C   0  0
   12.0287   -4.0732   -1.8403 C   0  0
   12.7557   -4.2255   -0.6744 C   0  0
   12.5136   -5.3056    0.1552 C   0  0
   11.5438   -6.2330   -0.1825 C   0  0
   13.4265   -5.4978    1.6192 Cl  0  0
    0.8685    1.7535    0.5922 H   0  0
   -0.9006    1.7293    0.6090 H   0  0
   -0.0335    1.9163   -0.9910 H   0  0
   -1.7995   -1.6213    0.9750 H   0  0
   -1.8119   -0.0805    1.8760 H   0  0
   -1.2093   -1.5835    2.6866 H   0  0
    1.9559    0.6413   -2.9375 H   0  0
    4.3238    0.1518   -3.4874 H   0  0
    5.3694   -1.9608   -2.7176 H   0  0
    1.6577   -3.0766   -0.8018 H   0  0
    6.0311   -3.5145   -2.1098 H   0  0
    6.0683   -5.4708    0.0055 H   0  0
    5.5358   -6.2881   -1.5029 H   0  0
    8.1043   -4.6408   -1.1633 H   0  0
    7.5706   -5.4573   -2.6717 H   0  0
    7.7017   -7.3004   -0.3760 H   0  0
   10.4912   -4.8857   -3.1117 H   0  0
   12.2182   -3.2121   -2.4980 H   0  0
   13.5265   -3.4879   -0.4064 H   0  0
   11.3508   -7.0921    0.4768 H   0  0
  1  2  1  0
  2  3  1  0
  2  5  1  0
  3  4  1  0
  5  6  2  0
  5  7  2  0
  5  8  1  0
  8 13  2  0
  8  9  1  0
  9 10  2  0
 10 11  1  0
 11 12  2  0
 12 13  1  0
 12 14  1  0
 14 15  2  0
 14 16  1  0
 16 17  1  0
 17 18  1  0
 18 19  1  0
 19 20  1  0
 20 21  2  0
 20 22  2  0
 20 23  1  0
 23 28  2  0
 23 24  1  0
 24 25  2  0
 25 26  1  0
 26 27  2  0
 27 28  1  0
 27 29  1  0
  1 30  1  0
  1 31  1  0
  1 32  1  0
  4 33  1  0
  4 34  1  0
  4 35  1  0
  9 36  1  0
 10 37  1  0
 11 38  1  0
 13 39  1  0
 16 40  1  0
 17 41  1  0
 17 42  1  0
 18 43  1  0
 18 44  1  0
 19 45  1  0
 24 46  1  0
 25 47  1  0
 26 48  1  0
 28 49  1  0
M  END
> <Name>
ZINC25133157

> <reference>
BDB50020402

> <quality>
0.687

> <status>
decoy

$$$$
ZINC20860197
  SciTegic06061311253D

 58 60  0  0  1  0            999 V2000
    8.6398    2.9160    7.2207 C   0  0
    8.2073    3.9899    6.2205 C   0  0
    9.3257    4.3698    5.4162 O   0  0
    9.1104    5.3215    4.4702 C   0  0
   10.1520    5.7380    3.6539 C   0  0
    9.9304    6.7052    2.6928 C   0  0
    8.6719    7.2582    2.5440 C   0  0
    7.6335    6.8489    3.3601 C   0  0
    7.8485    5.8779    4.3189 C   0  0
    8.3927    8.4916    1.3172 S   0  0
    9.6623    9.0473    1.0035 O   0  0
    7.3070    9.2843    1.7779 O   0  0
    7.8659    7.7148   -0.0472 N   0  0
    6.6595    7.0244   -0.0320 C   0  0
    5.4572    7.7263   -0.0535 C   0  0
    4.2655    7.0484   -0.0385 C   0  0
    4.2585    5.6504   -0.0021 C   0  0
    5.4679    4.9486    0.0243 C   0  0
    6.6561    5.6325    0.0043 C   0  0
    2.9794    4.9184    0.0145 C   0  0
    1.9293    5.5296   -0.0034 O   0  0
    2.9743    3.5713    0.0496 O   0  0
    1.6781    2.9170    0.0642 C   0  0
    1.8700    1.4228    0.1035 C   0  0
    2.9890    0.9553    0.1178 O   0  0
    0.7981    0.6060    0.1228 N   0  0
    0.9847   -0.8465    0.1610 C   0  0
   -0.3811   -1.5359    0.1764 C   0  0  1  0  0  0
   -0.1958   -3.0652    0.2166 C   0  0
   -0.9301   -3.5026    1.5074 C   0  0
   -1.8865   -2.3088    1.7573 C   0  0
   -1.1041   -1.1618    1.3611 O   0  0
    9.4364    3.3143    7.8663 H   0  0
    9.0149    2.0366    6.6767 H   0  0
    7.7793    2.6231    7.8402 H   0  0
    7.4110    3.5907    5.5752 H   0  0
    7.8322    4.8693    6.7644 H   0  0
   11.1534    5.2985    3.7719 H   0  0
   10.7559    7.0357    2.0453 H   0  0
    6.6354    7.2968    3.2458 H   0  0
    7.0199    5.5461    4.9619 H   0  0
    8.4322    7.7432   -0.9071 H   0  0
    5.4634    8.8259   -0.0826 H   0  0
    3.3160    7.6035   -0.0551 H   0  0
    5.4659    3.8492    0.0611 H   0  0
    7.6077    5.0809    0.0169 H   0  0
    1.1179    3.1903   -0.8422 H   0  0
    1.1155    3.2374    0.9535 H   0  0
   -0.1522    1.0030    0.1107 H   0  0
    1.5469   -1.1676   -0.7283 H   0  0
    1.5438   -1.1218    1.0675 H   0  0
   -0.9298   -1.2330   -0.7276 H   0  0
    0.8728   -3.3165    0.2865 H   0  0
   -0.6690   -3.5273   -0.6623 H   0  0
   -1.5062   -4.4222    1.3270 H   0  0
   -0.2174   -3.6014    2.3394 H   0  0
   -2.1431   -2.2454    2.8251 H   0  0
   -2.7795   -2.4000    1.1216 H   0  0
  1  2  1  0
  2  3  1  0
  3  4  1  0
  4  9  2  0
  4  5  1  0
  5  6  2  0
  6  7  1  0
  7  8  2  0
  7 10  1  0
  8  9  1  0
 10 11  2  0
 10 12  2  0
 10 13  1  0
 13 14  1  0
 14 19  2  0
 14 15  1  0
 15 16  2  0
 16 17  1  0
 17 18  2  0
 17 20  1  0
 18 19  1  0
 20 21  2  0
 20 22  1  0
 22 23  1  0
 23 24  1  0
 24 25  2  0
 24 26  1  0
 26 27  1  0
 27 28  1  0
 28 32  1  0
 28 29  1  0
 29 30  1  0
 30 31  1  0
 31 32  1  0
  1 33  1  0
  1 34  1  0
  1 35  1  0
  2 36  1  0
  2 37  1  0
  5 38  1  0
  6 39  1  0
  8 40  1  0
  9 41  1  0
 13 42  1  0
 15 43  1  0
 16 44  1  0
 18 45  1  0
 19 46  1  0
 23 47  1  0
 23 48  1  0
 26 49  1  0
 27 50  1  0
 27 51  1  0
 28 52  1  0
 29 53  1  0
 29 54  1  0
 30 55  1  0
 30 56  1  0
 31 57  1  0
 31 58  1  0
M  END
> <Name>
ZINC20860197

> <reference>
BDB50020402

> <quality>
0.684

> <status>
decoy

$$$$
ZINC32011398
  SciTegic06061311253D

 57 58  0  0  1  0            999 V2000
    3.9004   -0.9848   -7.8734 C   0  0
    3.0717   -2.0668   -7.2304 C   0  0
    1.7423   -1.9012   -7.0617 C   0  0
    1.0046   -2.8940   -6.4764 N   0  0
    1.5924   -4.0314   -6.0629 C   0  0
    0.9188   -4.8987   -5.5410 O   0  0
    2.9147   -4.2248   -6.2234 N   0  0
    3.6765   -3.2707   -6.7956 C   0  0
    4.8738   -3.4428   -6.9367 O   0  0
   -0.4377   -2.7142   -6.2929 C   0  0  1  0  0  0
   -1.2200   -3.7364   -7.1470 C   0  0
   -2.4249   -4.1225   -6.2602 C   0  0  1  0  0  0
   -2.2281   -3.2880   -4.9753 C   0  0  2  0  0  0
   -0.8122   -3.0072   -4.9281 O   0  0
   -2.6524   -4.0943   -3.7462 C   0  0
   -2.5386   -3.2784   -2.5786 O   0  0
   -2.9040   -3.8051   -1.1017 P   0  0  2  0  0  0
   -4.3249   -4.2173   -1.0625 O   0  0
   -2.6468   -2.5712    0.0135 N   0  0
   -1.2439   -2.1355    0.0025 C   0  0
   -1.1855   -0.6297    0.0100 C   0  0
   -2.2076    0.0145    0.0232 O   0  0
    0.0021   -0.0041    0.0020 O   0  0
   -0.0176    1.4478    0.0100 C   0  0
   -1.6737   -5.4625   -0.6181 S   0  0
   -2.2039   -5.9298    1.0526 C   0  0
   -3.5327   -6.6368    0.9786 C   0  0
   -4.0692   -6.8085   -0.0955 O   0  0
   -4.1248   -7.0783    2.1059 N   0  0
   -5.4166   -7.7656    2.0340 C   0  0
   -3.6847   -3.7645   -6.9169 N   0  0
   -4.0283   -4.3348   -7.8225 N   0  3
   -4.3719   -4.9051   -8.7280 N   0  5
    4.3927   -1.4769   -8.7251 H   0  0
    4.6847   -0.7565   -7.1367 H   0  0
    3.3267   -0.0949   -8.1715 H   0  0
    1.2546   -0.9726   -7.3932 H   0  0
    3.3464   -5.1051   -5.9079 H   0  0
   -0.6681   -1.6757   -6.5729 H   0  0
   -0.5975   -4.6214   -7.3450 H   0  0
   -1.5705   -3.2640   -8.0765 H   0  0
   -2.4744   -5.2032   -6.0613 H   0  0
   -2.8337   -2.3697   -4.9797 H   0  0
   -3.6961   -4.4210   -3.8643 H   0  0
   -2.0020   -4.9753   -3.6418 H   0  0
   -3.3762   -2.1742    0.6228 H   0  0
   -0.7476   -2.5164   -0.9022 H   0  0
   -0.7315   -2.5262    0.8940 H   0  0
   -0.5814    1.7453    0.9064 H   0  0
   -0.5984    1.7548   -0.8722 H   0  0
    0.9917    1.8851    0.0027 H   0  0
   -2.3039   -5.0268    1.6727 H   0  0
   -1.4564   -6.6012    1.5003 H   0  0
   -3.6691   -6.9325    3.0180 H   0  0
   -5.2526   -8.6135    1.3526 H   0  0
   -6.0882   -7.0608    1.5219 H   0  0
   -5.8077   -8.0827    3.0120 H   0  0
  1  2  1  0
  2  8  1  0
  2  3  2  0
  3  4  1  0
  4  5  1  0
  4 10  1  0
  5  6  2  0
  5  7  1  0
  7  8  1  0
  8  9  2  0
 10 14  1  0
 10 11  1  0
 11 12  1  0
 12 13  1  0
 12 31  1  0
 13 14  1  0
 13 15  1  0
 15 16  1  0
 16 17  1  0
 17 18  2  0
 17 19  1  0
 17 25  1  0
 19 20  1  0
 20 21  1  0
 21 22  2  0
 21 23  1  0
 23 24  1  0
 25 26  1  0
 26 27  1  0
 27 28  2  0
 27 29  1  0
 29 30  1  0
 31 32  2  0
 32 33  2  0
  1 34  1  0
  1 35  1  0
  1 36  1  0
  3 37  1  0
  7 38  1  0
 10 39  1  0
 11 40  1  0
 11 41  1  0
 12 42  1  0
 13 43  1  0
 15 44  1  0
 15 45  1  0
 19 46  1  0
 20 47  1  0
 20 48  1  0
 24 49  1  0
 24 50  1  0
 24 51  1  0
 26 52  1  0
 26 53  1  0
 29 54  1  0
 30 55  1  0
 30 56  1  0
 30 57  1  0
M  CHG  2  32   1  33  -1
M  END
> <Name>
ZINC32011398

> <reference>
BDB50017125

> <quality>
0.870

> <status>
decoy

$$$$
ZINC19305414
  SciTegic06061311253D

 62 63  0  0  1  0            999 V2000
    2.3874    1.4077   -1.5363 C   0  0
    1.2788    1.7537   -0.5402 C   0  0
    1.6568    1.2286    0.8463 C   0  0
    0.5481    1.5746    1.8424 C   0  0
    0.9261    1.0495    3.2288 C   0  0  1  0  0  0
    2.1213    1.8088    3.7449 C   0  0
    2.4777    2.9340    3.1766 C   0  0
    2.9064    1.2735    4.9145 C   0  0
    2.2608    1.7429    6.2198 C   0  0
    3.1293    1.3103    7.4028 C   0  0
    2.4934    1.7727    8.6884 C   0  0
    1.4523    2.3854    8.6613 O   0  0
   -0.2344    1.2389    4.1713 C   0  0
   -0.8740    0.1318    4.7177 C   0  0
   -0.5495   -1.1525    4.2732 C   0  0
   -0.3027   -1.3915    2.8514 C   0  0
    0.0106   -2.6286    2.4185 C   0  0
    0.1040   -3.7392    3.3779 C   0  0
   -0.1450   -3.4944    4.8062 C   0  0
   -0.4518   -2.2528    5.2316 C   0  0
   -0.7429   -1.9565    6.9439 S   0  0
   -1.9602   -1.2283    7.0289 O   0  0
   -0.5491   -3.1969    7.6094 O   0  0
    0.4534   -0.9422    7.4755 N   0  0
    0.4080   -4.9441    2.9609 N   0  0
    0.2597   -2.8694    0.9794 N   0  0
    0.2924   -1.9324    0.2019 O   0  0
    0.4321   -4.0045    0.5727 O   0  0
   -0.6688    2.5300    4.4968 C   0  3
   -1.8018    2.8568    5.2828 C   0  0
   -1.8458    4.2185    5.3457 C   0  0
   -0.7613    4.7011    4.6005 C   0  0
   -0.0872    3.6844    4.1134 N   0  0
    3.0835    1.5039    9.8637 O   0  5
    2.5144    0.3159   -1.5806 H   0  0
    3.3303    1.8731   -1.2133 H   0  0
    2.1163    1.7850   -2.5334 H   0  0
    1.1528    2.8456   -0.4963 H   0  0
    0.3358    1.2884   -0.8631 H   0  0
    1.7826    0.1367    0.8032 H   0  0
    2.5991    1.6938    1.1714 H   0  0
   -0.3949    1.1093    1.5194 H   0  0
    0.4220    2.6665    1.8863 H   0  0
    1.1726   -0.0204    3.1609 H   0  0
    1.9047    3.3247    2.3228 H   0  0
    3.3500    3.4882    3.5533 H   0  0
    2.9091    0.1740    4.8821 H   0  0
    3.9407    1.6444    4.8638 H   0  0
    2.1727    2.8393    6.2119 H   0  0
    1.2607    1.2954    6.3172 H   0  0
    4.1296    1.7578    7.3077 H   0  0
    3.2174    0.2139    7.4116 H   0  0
   -1.6355    0.2670    5.4999 H   0  0
   -0.3729   -0.5602    2.1345 H   0  0
   -0.0810   -4.3233    5.5265 H   0  0
    1.2327   -1.3146    8.0366 H   0  0
    0.4181    0.0611    7.2450 H   0  0
    0.5816   -5.1129    1.9598 H   0  0
    0.4732   -5.7215    3.6334 H   0  0
   -2.5059    2.1522    5.7495 H   0  0
   -2.5921    4.8241    5.8807 H   0  0
   -0.5141    5.7620    4.4479 H   0  0
  1  2  1  0
  2  3  1  0
  3  4  1  0
  4  5  1  0
  5  6  1  0
  5 13  1  0
  6  7  2  0
  6  8  1  0
  8  9  1  0
  9 10  1  0
 10 11  1  0
 11 12  2  0
 11 34  1  0
 13 14  2  0
 13 29  1  0
 14 15  1  0
 15 20  2  0
 15 16  1  0
 16 17  2  0
 17 18  1  0
 17 26  1  0
 18 19  2  0
 18 25  1  0
 19 20  1  0
 20 21  1  0
 21 22  2  0
 21 23  2  0
 21 24  1  0
 26 27  2  0
 26 28  2  0
 29 33  1  0
 29 30  1  0
 30 31  2  0
 31 32  1  0
 32 33  2  0
  1 35  1  0
  1 36  1  0
  1 37  1  0
  2 38  1  0
  2 39  1  0
  3 40  1  0
  3 41  1  0
  4 42  1  0
  4 43  1  0
  5 44  1  0
  7 45  1  0
  7 46  1  0
  8 47  1  0
  8 48  1  0
  9 49  1  0
  9 50  1  0
 10 51  1  0
 10 52  1  0
 14 53  1  0
 16 54  1  0
 19 55  1  0
 24 56  1  0
 24 57  1  0
 25 58  1  0
 25 59  1  0
 30 60  1  0
 31 61  1  0
 32 62  1  0
M  CHG  2  29   1  34  -1
M  END
> <Name>
ZINC19305414

> <reference>
BDB50017125

> <quality>
0.845

> <status>
decoy

$$$$
ZINC10511364
  SciTegic06061311253D

 62 64  0  0  1  0            999 V2000
   -0.6414   12.7465   -1.8167 C   0  0
   -0.2205   12.7620   -0.4512 O   0  0
    0.0504   11.5602    0.1251 C   0  0
    0.4637   11.5032    1.4478 C   0  0
    0.7394   10.2833    2.0338 C   0  0
    0.6023    9.1135    1.2982 C   0  0
    0.1934    9.1719   -0.0276 C   0  0
   -0.0873   10.3922   -0.6101 C   0  0
    0.8813    7.8771    1.8910 N   0  0
    0.6717    6.7774    0.9390 C   0  0
    1.0628    5.4531    1.5992 C   0  0
    0.4662    6.3564    3.7642 C   0  0
    0.0752    7.6806    3.1040 C   0  0
    0.5505    3.9584    3.4345 C   0  0
   -0.1104    3.8924    4.8129 C   0  0
    0.1952    2.5406    5.4608 C   0  0
   -0.4375    2.4774    6.7807 N   0  0
   -0.2052    1.4243    7.5900 C   0  0
   -0.8022    1.3648    8.8352 C   0  5
   -0.4399    0.3229    9.8130 C   0  0
    0.3989   -0.5178    9.5483 O   0  0
   -1.0597    0.3299   11.0111 N   0  0
   -1.9900    1.2464   11.3133 C   0  0
   -2.7298    1.1723   12.8555 S   0  0
   -2.3722    2.2174   10.4722 N   0  0
   -1.8332    2.3367    9.2413 C   0  0
   -2.1883    3.2228    8.4869 O   0  0
    0.7053    0.3122    7.1369 C   0  0  2  0  0  0
    2.1399    0.7135    7.3645 C   0  0
    2.5391    1.7817    6.9651 O   0  0
    2.9744   -0.1159    8.0107 O   0  0
    4.3420    0.3361    8.1941 C   0  0
    0.5000    0.0670    5.7750 F   0  0
    0.2301    5.2571    2.8045 N   0  3
   -1.5378   12.1103   -1.8568 H   0  0
    0.1565   12.2411   -2.3805 H   0  0
   -0.8413   13.7534   -2.2118 H   0  0
    0.5720   12.4300    2.0304 H   0  0
    1.0674   10.2384    3.0828 H   0  0
    0.0931    8.2465   -0.6137 H   0  0
   -0.4202   10.4379   -1.6575 H   0  0
    1.2940    6.9395    0.0466 H   0  0
   -0.3881    6.7420    0.6465 H   0  0
    0.8912    4.6257    0.8950 H   0  0
    2.1242    5.4830    1.8865 H   0  0
   -0.1466    6.1971    4.6637 H   0  0
    1.5309    6.3823    4.0393 H   0  0
    0.2593    8.5079    3.8051 H   0  0
   -0.9916    7.6556    2.8370 H   0  0
    0.1702    3.1412    2.8040 H   0  0
    1.6408    3.8631    3.5447 H   0  0
    0.2834    4.7000    5.4475 H   0  0
   -1.1989    4.0086    4.7048 H   0  0
   -0.1988    1.7326    4.8269 H   0  0
    1.2834    2.4230    5.5706 H   0  0
   -0.8124   -0.3854   11.7097 H   0  0
   -3.0941    2.8879   10.7725 H   0  0
    0.4841   -0.5997    7.7109 H   0  0
    4.2827    1.2910    8.7369 H   0  0
    4.7377    0.5426    7.1887 H   0  0
    4.9620   -0.3971    8.7308 H   0  0
   -0.7627    5.2593    2.5300 H   0  0
  1  2  1  0
  2  3  1  0
  3  8  2  0
  3  4  1  0
  4  5  2  0
  5  6  1  0
  6  7  2  0
  6  9  1  0
  7  8  1  0
  9 13  1  0
  9 10  1  0
 10 11  1  0
 11 34  1  0
 12 13  1  0
 12 34  1  0
 14 15  1  0
 14 34  1  0
 15 16  1  0
 16 17  1  0
 17 18  2  0
 18 19  1  0
 18 28  1  0
 19 26  1  0
 19 20  1  0
 20 21  2  0
 20 22  1  0
 22 23  1  0
 23 24  2  0
 23 25  1  0
 25 26  1  0
 26 27  2  0
 28 29  1  0
 28 33  1  0
 29 30  2  0
 29 31  1  0
 31 32  1  0
  1 35  1  0
  1 36  1  0
  1 37  1  0
  4 38  1  0
  5 39  1  0
  7 40  1  0
  8 41  1  0
 10 42  1  0
 10 43  1  0
 11 44  1  0
 11 45  1  0
 12 46  1  0
 12 47  1  0
 13 48  1  0
 13 49  1  0
 14 50  1  0
 14 51  1  0
 15 52  1  0
 15 53  1  0
 16 54  1  0
 16 55  1  0
 22 56  1  0
 25 57  1  0
 28 58  1  0
 32 59  1  0
 32 60  1  0
 32 61  1  0
 34 62  1  0
M  CHG  2  19  -1  34   1
M  END
> <Name>
ZINC10511364

> <reference>
BDB50017125

> <quality>
0.836

> <status>
decoy

$$$$
ZINC25759353
  SciTegic06061311253D

 74 75  0  0  1  0            999 V2000
    5.7787   -0.3163   -9.4257 C   0  0
    4.2922   -0.0936   -9.5344 C   0  0
    3.6374   -0.3139  -10.7041 C   0  0
    2.2460   -0.0987  -10.7803 C   0  0
    1.6714   -0.3001  -11.8352 O   0  0
    1.5384    0.3219   -9.7202 O   0  0
    2.1277    0.5595   -8.5287 C   0  0
    3.5143    0.3657   -8.3819 C   0  0
    4.1297    0.6101   -7.1490 C   0  0
    3.3829    1.0422   -6.0917 C   0  0
    2.0079    1.2308   -6.2287 C   0  0
    1.3822    0.9932   -7.4436 C   0  0
    1.2569    1.6672   -5.1369 N   0  0
   -0.0034    1.2217   -4.9646 C   0  0
   -0.5137    0.5071   -5.8012 O   0  0
   -0.7784    1.6113   -3.7323 C   0  0  2  0  0  0
   -0.0385    1.1181   -2.4873 C   0  0
   -0.7582    1.6201   -1.2339 C   0  0
   -0.0183    1.1269    0.0111 C   0  0
   -0.7380    1.6289    1.2645 C   0  0
   -0.0275    1.1553    2.4599 N   0  3
   -2.1108    1.0041   -3.7811 N   0  0
   -3.1333    1.5680   -3.1082 C   0  0
   -2.9505    2.5781   -2.4622 O   0  0
   -4.5039    0.9434   -3.1584 C   0  0  1  0  0  0
   -4.4361   -0.4805   -2.6026 C   0  0
   -5.7980   -1.1579   -2.7680 C   0  0  1  0  0  0
   -6.1100   -1.3190   -4.2571 C   0  0
   -5.7671   -2.5347   -2.1014 C   0  0
   -5.4329    1.7388   -2.3518 N   0  0
   -6.7534    1.7096   -2.6199 C   0  0
   -7.1726    1.0249   -3.5289 O   0  0
   -7.7090    2.5277   -1.7901 C   0  0  2  0  0  0
   -7.9983    1.7976   -0.4771 C   0  0
   -8.9629    2.7172   -2.5316 N   0  3
    5.8900   -1.0300   -8.5961 H   0  0
    6.1758    0.6463   -9.0712 H   0  0
    6.2588   -0.6611  -10.3534 H   0  0
    4.1913   -0.6593  -11.5895 H   0  0
    1.8784   -1.2400  -12.0671 H   0  0
    5.2124    0.4543   -7.0325 H   0  0
    3.8685    1.2430   -5.1253 H   0  0
    0.2980    1.1484   -7.5456 H   0  0
   -0.8757    2.7062   -3.6913 H   0  0
   -0.0201    0.0183   -2.4832 H   0  0
    0.9923    1.5020   -2.4958 H   0  0
   -0.7766    2.7199   -1.2372 H   0  0
   -1.7890    1.2362   -1.2231 H   0  0
    0.0001    0.0271    0.0152 H   0  0
    1.0125    1.5108    0.0026 H   0  0
   -0.7564    2.7287    1.2612 H   0  0
   -1.7688    1.2450    1.2753 H   0  0
    0.9377    1.5149    2.4518 H   0  0
   -0.0096    0.1255    2.4644 H   0  0
   -0.5115    1.4929    3.3041 H   0  0
   -2.2661    0.1463   -4.3297 H   0  0
   -4.8555    0.9140   -4.2003 H   0  0
   -4.1715   -0.4465   -1.5354 H   0  0
   -3.6736   -1.0526   -3.1515 H   0  0
   -6.5751   -0.5392   -2.2955 H   0  0
   -5.3336   -1.9378   -4.7306 H   0  0
   -6.1327   -0.3295   -4.7372 H   0  0
   -7.0891   -1.8060   -4.3767 H   0  0
   -5.5432   -2.4198   -1.0306 H   0  0
   -4.9904   -3.1544   -2.5734 H   0  0
   -6.7460   -3.0223   -2.2199 H   0  0
   -5.0769    2.3203   -1.5798 H   0  0
   -7.2596    3.5080   -1.5732 H   0  0
   -7.0599    1.6555    0.0790 H   0  0
   -8.4480    0.8172   -0.6929 H   0  0
   -8.6958    2.3943    0.1291 H   0  0
   -9.3846    1.7998   -2.7350 H   0  0
   -8.7692    3.2090   -3.4156 H   0  0
   -9.6165    3.2763   -1.9649 H   0  0
  1  2  1  0
  2  8  2  0
  2  3  1  0
  3  4  2  0
  4  5  1  0
  4  6  1  0
  6  7  1  0
  7 12  2  0
  7  8  1  0
  8  9  1  0
  9 10  2  0
 10 11  1  0
 11 12  1  0
 11 13  2  3
 13 14  1  0
 14 15  2  0
 14 16  1  0
 16 17  1  0
 16 22  1  0
 17 18  1  0
 18 19  1  0
 19 20  1  0
 20 21  1  0
 22 23  1  0
 23 24  2  0
 23 25  1  0
 25 26  1  0
 25 30  1  0
 26 27  1  0
 27 28  1  0
 27 29  1  0
 30 31  1  0
 31 32  2  0
 31 33  1  0
 33 34  1  0
 33 35  1  0
  1 36  1  0
  1 37  1  0
  1 38  1  0
  3 39  1  0
  5 40  1  0
  9 41  1  0
 10 42  1  0
 12 43  1  0
 16 44  1  0
 17 45  1  0
 17 46  1  0
 18 47  1  0
 18 48  1  0
 19 49  1  0
 19 50  1  0
 20 51  1  0
 20 52  1  0
 21 53  1  0
 21 54  1  0
 21 55  1  0
 22 56  1  0
 25 57  1  0
 26 58  1  0
 26 59  1  0
 27 60  1  0
 28 61  1  0
 28 62  1  0
 28 63  1  0
 29 64  1  0
 29 65  1  0
 29 66  1  0
 30 67  1  0
 33 68  1  0
 34 69  1  0
 34 70  1  0
 34 71  1  0
 35 72  1  0
 35 73  1  0
 35 74  1  0
M  CHG  2  21   1  35   1
M  END
> <Name>
ZINC25759353

> <reference>
BDB50017125

> <quality>
0.823

> <status>
decoy

$$$$
ZINC31908277
  SciTegic06061311253D

 64 67  0  0  1  0            999 V2000
    1.1486    2.0966    0.0901 C   0  0
    2.3545    1.4376   -0.1061 C   0  0
    2.3977    0.0616   -0.2028 C   0  0
    1.2252   -0.6802   -0.1037 C   0  0
    0.0031   -0.0083    0.0953 C   0  0
   -0.0165    1.3919    0.1906 C   0  0
   -1.0217   -0.9864    0.1600 C   0  0
   -0.3591   -2.2874   -0.0100 C   0  0
    0.9921   -2.0431   -0.1646 N   0  0
   -0.9734   -3.5254   -0.0136 C   0  0
   -0.9451   -4.5467   -1.0749 C   0  0
   -0.3348   -4.6197   -2.3235 C   0  0
   -0.4994   -5.7500   -3.1010 C   0  0
   -1.2642   -6.8093   -2.6391 C   0  0
   -1.8725   -6.7565   -1.4004 C   0  0
   -1.7223   -5.6256   -0.5944 C   0  0
   -2.2052   -5.3242    0.6403 N   0  0
   -1.8230   -4.1308    1.0547 C   0  0
   -2.1124   -3.6140    2.1221 O   0  0
   -2.3515   -0.7650    0.3428 N   0  0
   -3.0552   -0.7122   -0.9388 O   0  0
   -4.4606   -0.4818   -0.8211 C   0  0
   -5.0901   -0.4462   -2.2151 C   0  0
   -4.9643   -1.7682   -2.8431 N   0  3
   -5.5592   -1.7718   -4.1862 C   0  0
   -5.4093   -3.1623   -4.8067 C   0  0  1  0  0  0
   -6.0289   -3.1660   -6.2056 C   0  0  1  0  0  0
   -5.8789   -4.5565   -6.8261 C   0  0  1  0  0  0
   -6.4985   -4.5602   -8.2250 C   0  0  2  0  0  0
   -6.2392   -5.9116   -8.8941 C   0  0
   -6.9159   -5.9580  -10.1518 O   0  0
   -5.9109   -3.5200   -9.0090 O   0  0
   -4.4924   -4.8899   -6.9184 O   0  0
   -7.4154   -2.8326   -6.1133 O   0  0
   -4.0228   -3.4957   -4.8990 O   0  0
    1.1316    3.1939    0.1651 H   0  0
    3.2854    2.0182   -0.1853 H   0  0
    3.3597   -0.4487   -0.3583 H   0  0
   -0.9686    1.9204    0.3459 H   0  0
    1.7144   -2.7641   -0.3037 H   0  0
    0.2759   -3.7813   -2.6898 H   0  0
   -0.0217   -5.8092   -4.0901 H   0  0
   -1.3884   -7.7038   -3.2672 H   0  0
   -2.4760   -7.6060   -1.0481 H   0  0
   -2.8029   -0.6498    1.2614 H   0  0
   -4.6346    0.4799   -0.3164 H   0  0
   -4.9172   -1.2921   -0.2338 H   0  0
   -6.1543   -0.1809   -2.1303 H   0  0
   -4.5735    0.3031   -2.8329 H   0  0
   -3.9674   -2.0175   -2.9131 H   0  0
   -5.4418   -2.4696   -2.2591 H   0  0
   -6.6266   -1.5157   -4.1153 H   0  0
   -5.0457   -1.0320   -4.8179 H   0  0
   -5.9233   -3.9026   -4.1760 H   0  0
   -5.5150   -2.4257   -6.8363 H   0  0
   -6.3928   -5.2968   -6.1954 H   0  0
   -7.5827   -4.3921   -8.1462 H   0  0
   -6.6124   -6.7196   -8.2477 H   0  0
   -5.1586   -6.0400   -9.0548 H   0  0
   -6.5803   -5.2319  -10.7352 H   0  0
   -4.9351   -3.6706   -9.0807 H   0  0
   -4.0906   -4.8880   -6.0136 H   0  0
   -7.5134   -1.9329   -5.7121 H   0  0
   -3.6210   -3.4938   -3.9942 H   0  0
  1  6  1  0
  1  2  2  0
  2  3  1  0
  3  4  2  0
  4  9  1  0
  4  5  1  0
  5  6  2  0
  5  7  1  0
  7  8  2  0
  7 20  1  0
  8  9  1  0
  8 10  1  0
 10 18  1  0
 10 11  2  0
 11 16  1  0
 11 12  1  0
 12 13  2  0
 13 14  1  0
 14 15  2  0
 15 16  1  0
 16 17  2  0
 17 18  1  0
 18 19  2  0
 20 21  1  0
 21 22  1  0
 22 23  1  0
 23 24  1  0
 24 25  1  0
 25 26  1  0
 26 27  1  0
 26 35  1  0
 27 28  1  0
 27 34  1  0
 28 29  1  0
 28 33  1  0
 29 30  1  0
 29 32  1  0
 30 31  1  0
  1 36  1  0
  2 37  1  0
  3 38  1  0
  6 39  1  0
  9 40  1  0
 12 41  1  0
 13 42  1  0
 14 43  1  0
 15 44  1  0
 20 45  1  0
 22 46  1  0
 22 47  1  0
 23 48  1  0
 23 49  1  0
 24 50  1  0
 24 51  1  0
 25 52  1  0
 25 53  1  0
 26 54  1  0
 27 55  1  0
 28 56  1  0
 29 57  1  0
 30 58  1  0
 30 59  1  0
 31 60  1  0
 32 61  1  0
 33 62  1  0
 34 63  1  0
 35 64  1  0
M  CHG  1  24   1
M  END
> <Name>
ZINC31908277

> <reference>
BDB50017125

> <quality>
0.798

> <status>
decoy

$$$$
ZINC31543441
  SciTegic06061311253D

 47 49  0  0  1  0            999 V2000
    3.8364   -0.2685    1.8782 C   0  0
    4.8856    0.4948    1.6317 N   0  0
    4.7839    1.5798    0.8711 C   0  0
    3.5250    1.9098    0.3404 C   0  0
    2.4397    1.0675    0.6345 C   0  0
    2.6400   -0.0012    1.3990 N   0  0
    1.3539    1.6135   -0.0022 N   0  0
    1.7788    2.7402   -0.6411 C   0  0
    3.0528    2.9122   -0.4389 N   0  0
   -0.0127    1.0858    0.0080 C   0  0  1  0  0  0
   -0.7810    1.6064    1.2430 C   0  0  1  0  0  0
   -2.2180    1.8394    0.7168 C   0  0  1  0  0  0
   -2.1442    1.4320   -0.7715 C   0  0  2  0  0  0
   -0.7528    1.5848   -1.1273 O   0  0
   -3.0164    2.3566   -1.6231 C   0  0
   -2.9674    1.9345   -2.9875 O   0  0
   -3.7701    2.6819   -4.1661 P   0  0  2  0  0  0
   -3.5560    4.5249   -3.9917 S   0  0
   -5.3339    2.3117   -4.0688 O   0  5
   -3.1940    2.2073   -5.5926 O   0  0
   -3.5527    2.5686   -7.1199 P   0  0
   -3.7095    4.0339   -7.2565 O   0  0
   -4.9276    1.8408   -7.5348 O   0  5
   -2.3661    2.0637   -8.0838 O   0  0
   -2.3379    2.3284   -9.4878 C   0  0
   -1.0787    1.7099  -10.0982 C   0  0
   -1.0496    1.9826  -11.5444 C   0  0
   -1.0272    2.1930  -12.6606 N   0  0
   -3.1481    1.0109    1.4172 O   0  0
   -0.7791    0.6269    2.2834 O   0  0
    5.8887    2.3743    0.6197 N   0  0
    3.9673   -1.1611    2.5076 H   0  0
    1.1392    3.4058   -1.2393 H   0  0
    0.0683   -0.0112    0.0013 H   0  0
   -0.3332    2.5151    1.6716 H   0  0
   -2.5573    2.8765    0.8559 H   0  0
   -2.5077    0.4076   -0.9403 H   0  0
   -4.0552    2.3144   -1.2639 H   0  0
   -2.6433    3.3885   -1.5457 H   0  0
   -3.2282    1.8894   -9.9618 H   0  0
   -2.3307    3.4153   -9.6571 H   0  0
   -0.1880    2.1488   -9.6249 H   0  0
   -1.0848    0.6227   -9.9309 H   0  0
   -3.1104    1.2272    2.3825 H   0  0
    0.1567    0.4262    2.5367 H   0  0
    6.7993    2.1195    1.0281 H   0  0
    5.8029    3.2139    0.0293 H   0  0
  1  6  1  0
  1  2  2  0
  2  3  1  0
  3  4  2  0
  3 31  1  0
  4  9  1  0
  4  5  1  0
  5  6  2  0
  5  7  1  0
  7  8  1  0
  7 10  1  0
  8  9  2  0
 10 14  1  0
 10 11  1  0
 11 12  1  0
 11 30  1  0
 12 13  1  0
 12 29  1  0
 13 14  1  0
 13 15  1  0
 15 16  1  0
 16 17  1  0
 17 18  2  0
 17 19  1  0
 17 20  1  0
 20 21  1  0
 21 22  2  0
 21 23  1  0
 21 24  1  0
 24 25  1  0
 25 26  1  0
 26 27  1  0
 27 28  3  0
  1 32  1  0
  8 33  1  0
 10 34  1  0
 11 35  1  0
 12 36  1  0
 13 37  1  0
 15 38  1  0
 15 39  1  0
 25 40  1  0
 25 41  1  0
 26 42  1  0
 26 43  1  0
 29 44  1  0
 30 45  1  0
 31 46  1  0
 31 47  1  0
M  CHG  2  19  -1  23  -1
M  END
> <Name>
ZINC31543441

> <reference>
BDB50017125

> <quality>
0.797

> <status>
decoy

$$$$
ZINC20909946
  SciTegic06061311253D

 71 73  0  0  0  0            999 V2000
   -0.9441    0.9754   -2.2694 C   0  0
   -1.0418    1.5510   -0.8515 C   0  0  2  0  0  0
   -1.0215    3.0759   -0.9179 C   0  0
    0.3963    3.5825   -1.1815 C   0  0  2  0  0  0
    1.2982    3.1041   -0.0422 C   0  0
    1.3204    1.5766   -0.0021 C   0  0  2  0  0  0
   -0.0116    1.0048    0.0076 N   0  3
    2.0349    1.1563    1.3012 C   0  0
    2.1514    1.0406   -1.1717 C   0  0
    0.3888    5.0505   -1.2068 N   0  0
    0.1130    5.7033   -2.3531 C   0  0
   -0.1290    5.0782   -3.3639 O   0  0
    0.1053    7.2101   -2.3791 C   0  0
   -0.2969    7.7840   -4.0522 S   0  0
   -0.2666    9.5407   -3.9191 C   0  0
   -0.5101   10.4268   -4.9298 N   0  0
   -0.3903   11.6906   -4.4218 C   0  0
   -0.0856   11.5891   -3.1507 N   0  0
   -0.0120   10.2271   -2.8307 N   0  0
   -0.5611   12.8727   -5.1276 N   0  0
   -0.4074   14.1046   -4.4783 N   0  0
   -0.5673   15.2112   -5.1390 C   0  0
   -0.4055   16.5074   -4.4559 C   0  0
   -0.0858   16.5472   -3.0964 C   0  0
    0.0706   17.7653   -2.4594 C   0  0
   -0.1010   18.9499   -3.1686 C   0  0
   -0.4247   18.9137   -4.5212 C   0  0
   -0.5772   17.6988   -5.1652 C   0  0
   -0.5916   20.0738   -5.2110 O   0  0
   -0.9235   19.9628   -6.5965 C   0  0
    0.0474   20.1462   -2.5379 O   0  0
   -1.1200   20.7142   -1.9408 C   0  0
    0.3869   17.8048   -1.1373 O   0  0
    0.5484   16.5510   -0.4711 C   0  0
   -2.4153    1.1295   -0.2823 C   0  0
   -1.0524   -0.1180   -2.2160 H   0  0
    0.0457    1.2188   -2.6829 H   0  0
   -1.7328    1.4004   -2.9076 H   0  0
   -1.6847    3.4139   -1.7278 H   0  0
   -1.3829    3.4877    0.0360 H   0  0
    0.7639    3.2014   -2.1457 H   0  0
    2.3196    3.4799   -0.2019 H   0  0
    0.9154    3.4886    0.9147 H   0  0
    0.0772    0.0013   -0.2067 H   0  0
   -0.3601    1.0394    0.9762 H   0  0
    1.4885    1.5352    2.1775 H   0  0
    3.0675    1.5354    1.3119 H   0  0
    2.0614    0.0577    1.3493 H   0  0
    3.1796    1.4239   -1.0955 H   0  0
    1.7063    1.3756   -2.1202 H   0  0
    2.1662   -0.0589   -1.1411 H   0  0
    0.5943    5.5814   -0.3484 H   0  0
   -0.6493    7.5854   -1.6721 H   0  0
    1.0975    7.5880   -2.0913 H   0  0
    0.0720   12.3730   -2.5014 H   0  0
   -0.8009   12.8447   -6.1289 H   0  0
   -0.8235   15.1812   -6.2083 H   0  0
    0.0414   15.6110   -2.5331 H   0  0
   -0.8334   17.6709   -6.2346 H   0  0
   -1.8489   19.3703   -6.6463 H   0  0
   -0.1196   19.3726   -7.0607 H   0  0
   -1.0420   20.9410   -7.0854 H   0  0
   -1.4964   19.9673   -1.2264 H   0  0
   -1.8620   20.8141   -2.7467 H   0  0
   -0.9211   21.6790   -1.4512 H   0  0
    1.3323   16.0081   -1.0196 H   0  0
   -0.3971   16.0053   -0.6057 H   0  0
    0.8029   16.6642    0.5931 H   0  0
   -2.4943    0.0333   -0.2355 H   0  0
   -3.2305    1.5386   -0.8973 H   0  0
   -2.5089    1.5319    0.7372 H   0  0
  1  2  1  0
  2  7  1  0
  2  3  1  0
  2 35  1  0
  3  4  1  0
  4  5  1  0
  4 10  1  0
  5  6  1  0
  6  7  1  0
  6  8  1  0
  6  9  1  0
 10 11  1  0
 11 12  2  0
 11 13  1  0
 13 14  1  0
 14 15  1  0
 15 19  2  0
 15 16  1  0
 16 17  2  0
 17 18  1  0
 17 20  1  0
 18 19  1  0
 20 21  1  0
 21 22  2  0
 22 23  1  0
 23 28  2  0
 23 24  1  0
 24 25  2  0
 25 26  1  0
 25 33  1  0
 26 27  2  0
 26 31  1  0
 27 28  1  0
 27 29  1  0
 29 30  1  0
 31 32  1  0
 33 34  1  0
  1 36  1  0
  1 37  1  0
  1 38  1  0
  3 39  1  0
  3 40  1  0
  4 41  1  0
  5 42  1  0
  5 43  1  0
  7 44  1  0
  7 45  1  0
  8 46  1  0
  8 47  1  0
  8 48  1  0
  9 49  1  0
  9 50  1  0
  9 51  1  0
 10 52  1  0
 13 53  1  0
 13 54  1  0
 18 55  1  0
 20 56  1  0
 22 57  1  0
 24 58  1  0
 28 59  1  0
 30 60  1  0
 30 61  1  0
 30 62  1  0
 32 63  1  0
 32 64  1  0
 32 65  1  0
 34 66  1  0
 34 67  1  0
 34 68  1  0
 35 69  1  0
 35 70  1  0
 35 71  1  0
M  CHG  1   7   1
M  END
> <Name>
ZINC20909946

> <reference>
BDB50017125

> <quality>
0.797

> <status>
decoy

$$$$
ZINC11615964
  SciTegic06061311253D

 64 65  0  0  1  0            999 V2000
   -3.9250    0.6616   -8.5459 C   0  0
   -2.5514    0.3418   -7.9528 C   0  0
   -2.3513    1.1464   -6.6669 C   0  0
   -0.9777    0.8267   -6.0738 C   0  0  2  0  0  0
   -0.7445    1.6266   -4.7715 C   0  0
    0.7312    2.0633   -4.8266 C   0  0  1  0  0  0
    0.1527    1.3382   -7.0017 C   0  0
    2.3033    2.4223   -6.6439 C   0  0
    1.4742    1.5131   -3.6365 C   0  0
    2.1446    0.5090   -3.7514 O   0  0
    1.3936    2.1368   -2.4445 N   0  0
    2.1159    1.6019   -1.2876 C   0  0  2  0  0  0
    1.4204    2.0497   -0.0005 C   0  0  1  0  0  0
   -0.0187    1.5275    0.0104 C   0  0  2  0  0  0
    0.0021   -0.0041    0.0020 C   0  0  1  0  0  0
    0.8094   -0.4994    1.2059 C   0  0  1  0  0  0
    2.2165    0.1011    1.1487 C   0  0  1  0  0  0
    2.1240    1.5269    1.1281 O   0  0
    3.1576   -0.4231    2.6083 S   0  0
    4.8225    0.2354    2.3166 C   0  0
    0.1646   -0.0910    2.4139 O   0  0
   -0.3634   -1.1333    3.5217 P   0  0
   -1.2789   -2.1071    2.8861 O   0  0
   -1.3352   -0.5008    0.0862 O   0  0
   -0.7077    2.0022   -1.1480 O   0  0
    3.5541    2.1239   -1.2983 C   0  0  1  0  0  0
    4.2102    1.7834   -2.6379 C   0  0
    3.5460    3.9124   -1.0703 Cl  0  0
    1.2742    1.5040   -6.0699 N   0  3
    0.8894   -1.9144    4.1638 O   0  5
   -1.1483   -0.3349    4.6787 O   0  5
   -3.9862    1.7361   -8.7733 H   0  0
   -4.7092    0.3954   -7.8219 H   0  0
   -4.0695    0.0834   -9.4705 H   0  0
   -2.4912   -0.7328   -7.7254 H   0  0
   -1.7672    0.6080   -8.6768 H   0  0
   -3.1341    0.8806   -5.9412 H   0  0
   -2.4111    2.2211   -6.8936 H   0  0
   -0.9598   -0.2630   -5.9250 H   0  0
   -1.3980    2.5112   -4.7508 H   0  0
   -0.9131    0.9813   -3.8967 H   0  0
    0.8325    3.1584   -4.8035 H   0  0
    0.3938    0.5801   -7.7614 H   0  0
   -0.1252    2.3064   -7.4436 H   0  0
    3.1168    2.5542   -5.9153 H   0  0
    1.8408    3.3984   -6.8523 H   0  0
    2.7057    1.9969   -7.5751 H   0  0
    0.8242    2.9895   -2.3469 H   0  0
    2.1243    0.5030   -1.3366 H   0  0
    1.4128    3.1486    0.0483 H   0  0
   -0.5355    1.8856    0.9130 H   0  0
    0.4645   -0.3642   -0.9289 H   0  0
    0.8743   -1.5972    1.1817 H   0  0
    2.7277   -0.2469    0.2390 H   0  0
    4.8313    1.3343    2.2672 H   0  0
    5.2897   -0.1996    1.4208 H   0  0
    5.4420   -0.0548    3.1780 H   0  0
   -1.8583   -0.1742   -0.6882 H   0  0
   -0.2464    1.6796   -1.9624 H   0  0
    4.1213    1.6528   -0.4820 H   0  0
    3.6439    2.2543   -3.4550 H   0  0
    4.2159    0.6923   -2.7778 H   0  0
    5.2443    2.1584   -2.6463 H   0  0
    1.7313    0.5980   -5.8934 H   0  0
  1  2  1  0
  2  3  1  0
  3  4  1  0
  4  7  1  0
  4  5  1  0
  5  6  1  0
  6  9  1  0
  6 29  1  0
  7 29  1  0
  8 29  1  0
  9 10  2  0
  9 11  1  0
 11 12  1  0
 12 13  1  0
 12 26  1  0
 13 18  1  0
 13 14  1  0
 14 15  1  0
 14 25  1  0
 15 16  1  0
 15 24  1  0
 16 17  1  0
 16 21  1  0
 17 18  1  0
 17 19  1  0
 19 20  1  0
 21 22  1  0
 22 23  2  0
 22 30  1  0
 22 31  1  0
 26 27  1  0
 26 28  1  0
  1 32  1  0
  1 33  1  0
  1 34  1  0
  2 35  1  0
  2 36  1  0
  3 37  1  0
  3 38  1  0
  4 39  1  0
  5 40  1  0
  5 41  1  0
  6 42  1  0
  7 43  1  0
  7 44  1  0
  8 45  1  0
  8 46  1  0
  8 47  1  0
 11 48  1  0
 12 49  1  0
 13 50  1  0
 14 51  1  0
 15 52  1  0
 16 53  1  0
 17 54  1  0
 20 55  1  0
 20 56  1  0
 20 57  1  0
 24 58  1  0
 25 59  1  0
 26 60  1  0
 27 61  1  0
 27 62  1  0
 27 63  1  0
 29 64  1  0
M  CHG  3  29   1  30  -1  31  -1
M  END
> <Name>
ZINC11615964

> <reference>
BDB50017125

> <quality>
0.796

> <status>
decoy

$$$$
ZINC26652414
  SciTegic06061311253D

 63 64  0  0  1  0            999 V2000
   -0.3466   -1.2867   -0.1519 C   0  0
    0.9766   -0.5691   -0.0796 C   0  0
    2.1735   -1.2543   -0.2259 C   0  0
    3.3595   -0.5168   -0.1457 C   0  0
    2.7932    1.0994    0.1216 S   0  0
    1.0391    0.7811    0.1331 C   0  0
   -0.0612    1.7296    0.3178 C   0  0
   -1.2134    1.3378    0.2911 O   0  0
    0.2019    3.0362    0.5174 N   0  0
    4.6612   -0.9651   -0.2583 N   0  0
    5.6851   -0.0952   -0.1519 C   0  0
    5.4636    1.0811    0.0427 O   0  0
    7.1052   -0.5843   -0.2747 C   0  0
    8.0281    0.5485   -0.1231 N   0  0
    7.9650    1.1006    1.2367 C   0  0
    8.6031    2.4911    1.2527 C   0  0  1  0  0  0
    7.7989    3.4316    0.3529 C   0  0
    8.6075    3.0338    2.6832 C   0  0
    9.4014    0.1588   -0.4699 C   0  0  1  0  0  0
    9.8071   -1.0721    0.3577 C   0  0
   11.1212   -1.6479   -0.2431 C   0  0
   10.7724   -1.4753   -2.0441 S   0  0
   10.1924   -2.6820   -2.5204 O   0  0
   11.9240   -0.9498   -2.6897 O   0  0
    9.4756   -0.1728   -1.9799 C   0  0
    2.1951   -2.7029   -0.4574 C   0  0
    2.1717   -3.1377   -1.5928 O   0  0
    2.2408   -3.5523    0.5889 O   0  0
    2.2597   -4.9720    0.2851 C   0  0
    2.3116   -5.7718    1.5884 C   0  0
    1.1064   -5.5591    2.3261 O   0  0
    1.0524   -6.2650    3.5674 C   0  0
   -0.9008   -0.7670   -0.9473 H   0  0
   -0.8457   -1.0445    0.7980 H   0  0
   -0.2654   -2.3697   -0.3267 H   0  0
    1.1768    3.3677    0.5400 H   0  0
   -0.5720    3.7034    0.6473 H   0  0
    4.8493   -1.9642   -0.4236 H   0  0
    7.2512   -1.0456   -1.2626 H   0  0
    7.3062   -1.3280    0.5105 H   0  0
    8.5096    0.4401    1.9275 H   0  0
    6.9143    1.1763    1.5535 H   0  0
    9.6368    2.4245    0.8827 H   0  0
    6.7650    3.4992    0.7223 H   0  0
    7.7953    3.0424   -0.6760 H   0  0
    8.2571    4.4316    0.3639 H   0  0
    9.1857    2.3584    3.3309 H   0  0
    7.5741    3.1011    3.0541 H   0  0
    9.0662    4.0335    2.6954 H   0  0
   10.0901    0.9872   -0.2474 H   0  0
    9.9780   -0.7753    1.4030 H   0  0
    9.0136   -1.8321    0.3058 H   0  0
   11.9840   -1.0241    0.0335 H   0  0
   11.2382   -2.7105    0.0161 H   0  0
    9.8014    0.7072   -2.5539 H   0  0
    8.5174   -0.5818   -2.3330 H   0  0
    3.1456   -5.2061   -0.3234 H   0  0
    1.3504   -5.2399   -0.2729 H   0  0
    2.4157   -6.8423    1.3579 H   0  0
    3.1716   -5.4407    2.1891 H   0  0
    1.9148   -5.9432    4.1696 H   0  0
    1.1640   -7.3364    3.3447 H   0  0
    0.1098   -6.0730    4.1009 H   0  0
  1  2  1  0
  2  6  2  0
  2  3  1  0
  3  4  2  0
  3 26  1  0
  4  5  1  0
  4 10  1  0
  5  6  1  0
  6  7  1  0
  7  8  2  0
  7  9  1  0
 10 11  1  0
 11 12  2  0
 11 13  1  0
 13 14  1  0
 14 15  1  0
 14 19  1  0
 15 16  1  0
 16 17  1  0
 16 18  1  0
 19 25  1  0
 19 20  1  0
 20 21  1  0
 21 22  1  0
 22 23  2  0
 22 24  2  0
 22 25  1  0
 26 27  2  0
 26 28  1  0
 28 29  1  0
 29 30  1  0
 30 31  1  0
 31 32  1  0
  1 33  1  0
  1 34  1  0
  1 35  1  0
  9 36  1  0
  9 37  1  0
 10 38  1  0
 13 39  1  0
 13 40  1  0
 15 41  1  0
 15 42  1  0
 16 43  1  0
 17 44  1  0
 17 45  1  0
 17 46  1  0
 18 47  1  0
 18 48  1  0
 18 49  1  0
 19 50  1  0
 20 51  1  0
 20 52  1  0
 21 53  1  0
 21 54  1  0
 25 55  1  0
 25 56  1  0
 29 57  1  0
 29 58  1  0
 30 59  1  0
 30 60  1  0
 32 61  1  0
 32 62  1  0
 32 63  1  0
M  END
> <Name>
ZINC26652414

> <reference>
BDB50017125

> <quality>
0.794

> <status>
decoy

$$$$
ZINC16051817
  SciTegic06061311253D

 53 54  0  0  1  0            999 V2000
    2.5998   -2.0206    1.1022 C   0  0
    3.3796   -1.1015    2.0069 C   0  0
    3.7188   -1.5064    3.2672 C   0  0
    4.5784   -0.1164    3.8566 S   0  0
    4.4262    0.8888    2.3876 C   0  0
    3.7328    0.0818    1.5891 N   0  3
    3.3714    0.5203    0.2388 C   0  0
    4.4450    0.0979   -0.7307 C   0  0
    5.7371    0.5695   -0.6056 C   0  0
    6.6547    0.1811   -1.4798 N   0  0
    6.3534   -0.6525   -2.4551 C   0  0
    5.1344   -1.1269   -2.6121 N   0  0
    4.1583   -0.7796   -1.7782 C   0  0
    2.8775   -1.2801   -1.9465 N   0  0
    7.4321   -1.0702   -3.4211 C   0  0
    4.9285    2.2396    2.1317 C   0  0
    4.6386    2.8095    1.1003 O   0  0
    5.8057    2.9227    3.1490 C   0  0  1  0  0  0
    6.6756    3.9701    2.4511 C   0  0
    4.9298    3.6060    4.2010 C   0  0
    3.4257   -2.8116    3.9611 C   0  0
    4.5607   -3.8006    3.6879 C   0  0
    4.2827   -5.0383    4.3458 O   0  0
    5.2674   -6.3100    4.2741 P   0  0
    6.6210   -5.9117    4.7209 O   0  0
    4.7078   -7.4768    5.2319 O   0  0
    5.3698   -8.7739    5.9185 P   0  0
    6.6747   -8.4061    6.5120 O   0  0
    5.3393   -6.8482    2.7584 O   0  5
    4.3927   -9.3282    7.0718 O   0  5
    5.5893   -9.9169    4.8060 O   0  5
    3.2167   -2.1269    0.1977 H   0  0
    1.6998   -1.4538    0.8215 H   0  0
    2.3585   -2.9904    1.5617 H   0  0
    3.2734    1.6158    0.2217 H   0  0
    2.4146    0.0620   -0.0519 H   0  0
    6.0015    1.2591    0.2096 H   0  0
    2.1322   -1.0014   -1.2925 H   0  0
    2.6705   -1.9272   -2.7207 H   0  0
    8.2289   -1.5090   -2.8027 H   0  0
    7.8221   -0.1357   -3.8508 H   0  0
    7.0763   -1.7662   -4.1950 H   0  0
    6.4504    2.1769    3.6370 H   0  0
    6.0318    4.7166    1.9629 H   0  0
    7.3060    3.4797    1.6947 H   0  0
    7.3162    4.4691    3.1931 H   0  0
    4.3042    2.8536    4.7036 H   0  0
    4.2848    4.3522    3.7140 H   0  0
    5.5695    4.1048    4.9439 H   0  0
    3.3421   -2.6404    5.0445 H   0  0
    2.4801   -3.2258    3.5813 H   0  0
    4.6446   -3.9725    2.6047 H   0  0
    5.5071   -3.3885    4.0682 H   0  0
  1  2  1  0
  2  6  1  0
  2  3  2  0
  3  4  1  0
  3 21  1  0
  4  5  1  0
  5  6  2  0
  5 16  1  0
  6  7  1  0
  7  8  1  0
  8 13  2  0
  8  9  1  0
  9 10  2  0
 10 11  1  0
 11 12  2  0
 11 15  1  0
 12 13  1  0
 13 14  1  0
 16 17  2  0
 16 18  1  0
 18 19  1  0
 18 20  1  0
 21 22  1  0
 22 23  1  0
 23 24  1  0
 24 25  2  0
 24 26  1  0
 24 29  1  0
 26 27  1  0
 27 28  2  0
 27 30  1  0
 27 31  1  0
  1 32  1  0
  1 33  1  0
  1 34  1  0
  7 35  1  0
  7 36  1  0
  9 37  1  0
 14 38  1  0
 14 39  1  0
 15 40  1  0
 15 41  1  0
 15 42  1  0
 18 43  1  0
 19 44  1  0
 19 45  1  0
 19 46  1  0
 20 47  1  0
 20 48  1  0
 20 49  1  0
 21 50  1  0
 21 51  1  0
 22 52  1  0
 22 53  1  0
M  CHG  4   6   1  29  -1  30  -1  31  -1
M  END
> <Name>
ZINC16051817

> <reference>
BDB50017125

> <quality>
0.793

> <status>
decoy

$$$$
ZINC16052049
  SciTegic06061311253D

 60 62  0  0  1  0            999 V2000
   -2.0049    4.9098    6.5885 C   0  0
   -1.9729    6.0094    7.4251 C   0  0
   -2.2600    5.8626    8.7716 C   0  0
   -2.5848    4.6152    9.2772 C   0  0
   -2.6221    3.5182    8.4375 C   0  0
   -2.3348    3.6659    7.0933 C   0  0
   -2.3754    2.4687    6.1788 C   0  0  1  0  0  0
   -3.6981    2.4590    5.4099 C   0  0  1  0  0  0
   -3.7357    1.3476    4.5609 F   0  0
   -4.7630    2.3910    6.3146 F   0  0
   -3.8050    3.6294    4.6510 F   0  0
   -0.8925    1.2025    4.7435 C   0  0  1  0  0  0
   -0.2196    1.3225    3.3747 C   0  0
   -1.3664    2.0990    2.2031 S   0  0
   -1.6071    3.4336    2.6273 O   0  0
   -2.4705    1.2257    2.0092 O   0  0
   -0.3990    2.1500    0.6695 C   0  0
   -1.2363    2.7882   -0.4407 C   0  0  2  0  0  0
   -0.4645    2.7551   -1.7785 C   0  0
    0.2264    4.1410   -1.7756 C   0  0
   -0.6513    4.9917   -0.8842 C   0  0
   -0.6258    6.2033   -0.8364 O   0  0
   -1.4633    4.2092   -0.1525 N   0  0
    0.0602    0.5574    5.7168 C   0  0
    0.4018    1.1534    6.7163 O   0  0
    0.5327   -0.6817    5.4765 N   0  0
    1.5442   -1.2644    6.3616 C   0  0  2  0  0  0
    1.5389   -2.7844    6.5363 C   0  0
    1.0618   -1.8809    7.6762 C   0  0
    2.9009   -0.5572    6.3689 C   0  0
   -2.2227    6.9357    9.5916 F   0  0
   -1.2524    2.5492    5.2258 N   0  0
    3.2070   -0.0941    5.0039 N   0  3
   -1.7678    5.0245    5.5205 H   0  0
   -1.7195    7.0008    7.0214 H   0  0
   -2.8131    4.4974   10.3468 H   0  0
   -2.8805    2.5272    8.8388 H   0  0
   -2.2919    1.5461    6.7720 H   0  0
   -1.7992    0.5856    4.6579 H   0  0
    0.0536    0.3213    3.0101 H   0  0
    0.6863    1.9401    3.4641 H   0  0
   -0.1209    1.1270    0.3760 H   0  0
    0.5116    2.7459    0.8299 H   0  0
   -2.1808    2.2274   -0.5000 H   0  0
    0.2877    1.9525   -1.7676 H   0  0
   -1.1639    2.6781   -2.6241 H   0  0
    1.2359    4.0593   -1.3463 H   0  0
    0.2470    4.5564   -2.7940 H   0  0
   -2.1558    4.5617    0.5236 H   0  0
    0.1826   -1.2190    4.6705 H   0  0
    2.5504   -3.1724    6.7269 H   0  0
    0.6922   -3.2479    6.0087 H   0  0
   -0.0358   -1.8700    7.7485 H   0  0
    1.8227   -1.7932    8.4657 H   0  0
    3.6804   -1.2580    6.7024 H   0  0
    2.8623    0.3059    7.0498 H   0  0
   -0.4376    2.9731    5.6919 H   0  0
    2.4800    0.5638    4.6882 H   0  0
    3.2446   -0.8997    4.3632 H   0  0
    4.1199    0.3829    5.0034 H   0  0
  1  6  2  0
  1  2  1  0
  2  3  2  0
  3  4  1  0
  3 31  1  0
  4  5  2  0
  5  6  1  0
  6  7  1  0
  7  8  1  0
  7 32  1  0
  8  9  1  0
  8 10  1  0
  8 11  1  0
 12 13  1  0
 12 24  1  0
 12 32  1  0
 13 14  1  0
 14 15  2  0
 14 16  2  0
 14 17  1  0
 17 18  1  0
 18 23  1  0
 18 19  1  0
 19 20  1  0
 20 21  1  0
 21 22  2  0
 21 23  1  0
 24 25  2  0
 24 26  1  0
 26 27  1  0
 27 29  1  0
 27 28  1  0
 27 30  1  0
 28 29  1  0
 30 33  1  0
  1 34  1  0
  2 35  1  0
  4 36  1  0
  5 37  1  0
  7 38  1  0
 12 39  1  0
 13 40  1  0
 13 41  1  0
 17 42  1  0
 17 43  1  0
 18 44  1  0
 19 45  1  0
 19 46  1  0
 20 47  1  0
 20 48  1  0
 23 49  1  0
 26 50  1  0
 28 51  1  0
 28 52  1  0
 29 53  1  0
 29 54  1  0
 30 55  1  0
 30 56  1  0
 32 57  1  0
 33 58  1  0
 33 59  1  0
 33 60  1  0
M  CHG  1  33   1
M  END
> <Name>
ZINC16052049

> <reference>
BDB50017125

> <quality>
0.793

> <status>
decoy

$$$$
ZINC15672253
  SciTegic06061311253D

 71 74  0  0  1  0            999 V2000
   -3.8013   -1.2374   -3.3159 C   0  0
   -5.0302   -1.8570   -3.4091 C   0  0
   -6.1889   -1.1575   -3.0659 C   0  0
   -6.0943    0.1639   -2.6248 C   0  0
   -4.8584    0.7695   -2.5310 C   0  0
   -3.7142    0.0705   -2.8727 C   0  0
   -2.3676    0.7387   -2.7676 C   0  0
   -2.8557    0.6421   -0.3919 C   0  0
   -2.4866   -0.2586    0.7601 C   0  0
   -1.7232    0.5058    1.8550 C   0  0
   -0.6957    1.4923    1.2628 C   0  0  2  0  0  0
    0.0533    0.9127    0.0899 C   0  0  1  0  0  0
   -0.6756    1.2982   -1.2160 C   0  0
    1.4169    1.4477    0.0664 N   0  0
    2.4035    0.7518   -0.5326 C   0  0
    2.1619   -0.3200   -1.0533 O   0  0
    3.7774    1.2909   -0.5563 C   0  0
    4.0560    2.5251    0.0366 C   0  0
    5.3399    3.0226    0.0162 C   0  0
    6.3560    2.3034   -0.6020 C   0  0
    6.0821    1.0775   -1.1971 C   0  0
    4.8018    0.5709   -1.1767 C   0  0
    7.6191    2.7992   -0.6242 O   0  0
    7.8307    4.0641    0.0060 C   0  0
    9.3042    4.4565   -0.1197 C   0  0
   11.0870    4.5911   -1.7539 C   0  0
   11.3823    4.7579   -3.2468 C   0  0
   10.8319    5.9974   -3.7009 O   0  0
    9.4196    6.1068   -3.5037 C   0  0
    9.1045    5.9536   -2.0133 C   0  0
    0.2432    1.8513    2.2785 O   0  0
   -7.5090   -1.8124   -3.1694 C   0  0
   -8.5153   -1.2013   -2.8704 O   0  0
   -1.7998    0.4588   -1.4360 N   0  3
    9.6244    4.6494   -1.5506 N   0  0
   -7.5968   -3.0874   -3.5953 O   0  5
   -2.8885   -1.7843   -3.5945 H   0  0
   -5.0972   -2.8997   -3.7530 H   0  0
   -7.0031    0.7207   -2.3527 H   0  0
   -4.7823    1.8105   -2.1838 H   0  0
   -1.6975    0.3411   -3.5441 H   0  0
   -2.4832    1.8249   -2.8970 H   0  0
   -2.8714    1.6900   -0.0577 H   0  0
   -3.8354    0.3482   -0.7966 H   0  0
   -3.4033   -0.6871    1.1915 H   0  0
   -1.8576   -1.0813    0.3893 H   0  0
   -2.4423    1.0635    2.4730 H   0  0
   -1.1991   -0.2148    2.5000 H   0  0
   -1.2505    2.3712    0.9027 H   0  0
    0.0950   -0.1827    0.1815 H   0  0
   -1.0120    2.3434   -1.1497 H   0  0
    0.0191    1.2017   -2.0634 H   0  0
    1.6216    2.3556    0.5076 H   0  0
    3.2508    3.0986    0.5190 H   0  0
    5.5616    3.9904    0.4897 H   0  0
    6.8891    0.5113   -1.6850 H   0  0
    4.5858   -0.3992   -1.6481 H   0  0
    7.5600    3.9948    1.0699 H   0  0
    7.2059    4.8264   -0.4824 H   0  0
    9.4838    5.3938    0.4273 H   0  0
    9.9361    3.6568    0.2941 H   0  0
   11.5696    5.4021   -1.1889 H   0  0
   11.4681    3.6185   -1.4092 H   0  0
   12.4704    4.7588   -3.4081 H   0  0
   10.9275    3.9277   -3.8071 H   0  0
    9.0752    7.0918   -3.8518 H   0  0
    8.9062    5.3157   -4.0699 H   0  0
    9.5887    6.7642   -1.4490 H   0  0
    8.0159    5.9911   -1.8600 H   0  0
    0.7129    1.0417    2.6011 H   0  0
   -1.4764   -0.5176   -1.3815 H   0  0
  1  6  2  0
  1  2  1  0
  2  3  2  0
  3  4  1  0
  3 32  1  0
  4  5  2  0
  5  6  1  0
  6  7  1  0
  7 34  1  0
  8  9  1  0
  8 34  1  0
  9 10  1  0
 10 11  1  0
 11 12  1  0
 11 31  1  0
 12 13  1  0
 12 14  1  0
 13 34  1  0
 14 15  1  0
 15 16  2  0
 15 17  1  0
 17 22  2  0
 17 18  1  0
 18 19  2  0
 19 20  1  0
 20 21  2  0
 20 23  1  0
 21 22  1  0
 23 24  1  0
 24 25  1  0
 25 35  1  0
 26 27  1  0
 26 35  1  0
 27 28  1  0
 28 29  1  0
 29 30  1  0
 30 35  1  0
 32 33  2  0
 32 36  1  0
  1 37  1  0
  2 38  1  0
  4 39  1  0
  5 40  1  0
  7 41  1  0
  7 42  1  0
  8 43  1  0
  8 44  1  0
  9 45  1  0
  9 46  1  0
 10 47  1  0
 10 48  1  0
 11 49  1  0
 12 50  1  0
 13 51  1  0
 13 52  1  0
 14 53  1  0
 18 54  1  0
 19 55  1  0
 21 56  1  0
 22 57  1  0
 24 58  1  0
 24 59  1  0
 25 60  1  0
 25 61  1  0
 26 62  1  0
 26 63  1  0
 27 64  1  0
 27 65  1  0
 29 66  1  0
 29 67  1  0
 30 68  1  0
 30 69  1  0
 31 70  1  0
 34 71  1  0
M  CHG  2  34   1  36  -1
M  END
> <Name>
ZINC15672253

> <reference>
BDB50017125

> <quality>
0.790

> <status>
decoy

$$$$
ZINC23236097
  SciTegic06061311253D

 65 67  0  0  1  0            999 V2000
    9.7253    0.7838    5.7835 C   0  0
    8.9119   -0.5110    5.8356 C   0  0
    7.5330   -0.2384    5.4225 N   0  0
    6.5310    0.1427    6.4209 C   0  0
    5.8487   -1.1143    6.9644 C   0  0
    7.1822   -0.3395    4.1084 C   0  0
    7.9577   -0.6694    3.0881 N   0  0
    7.5494   -0.7461    1.8489 C   0  0
    8.2825   -1.0517    0.9287 O   0  0
    6.0731   -0.4186    1.6596 C   0  5
    5.6192   -0.0638    3.4040 S   0  0
    5.8834    0.8126    0.7714 C   0  0
    4.4168    1.1483    0.6848 C   0  0
    3.6034    0.4696    1.2754 O   0  0
    4.0090    2.2028   -0.0489 N   0  0
    2.6575    2.5661   -0.0611 C   0  0
    2.2990    3.9069   -0.1369 C   0  0
    0.9658    4.2709   -0.1483 C   0  0
   -0.0186    3.3055   -0.0850 C   0  0
    0.3310    1.9561   -0.0145 C   0  0
    1.6767    1.5890    0.0029 C   0  0
   -0.7215    0.9194    0.0472 C   0  0
   -0.4148   -0.2549    0.1131 O   0  0
   -2.0210    1.2765    0.0303 N   0  0
   -3.0638    0.2494    0.0915 C   0  0
   -4.4400    0.9171    0.0571 C   0  0  1  0  0  0
   -5.5100   -0.1276    0.2433 C   0  0
   -6.1930   -0.7384   -0.7415 C   0  0
   -7.0901   -1.6379   -0.1210 C   0  0
   -6.9016   -1.5230    1.2059 C   0  0
   -5.9393   -0.6110    1.4205 O   0  0
   -4.5303    1.9085    1.1374 N   0  3
   -5.8488    2.5561    1.1487 C   0  0
   -4.2330    1.2968    2.4395 C   0  0
    9.2797    1.5256    6.4626 H   0  0
    9.7222    1.1790    4.7569 H   0  0
   10.7608    0.5798    6.0936 H   0  0
    9.3580   -1.2520    5.1560 H   0  0
    8.9150   -0.9062    6.8621 H   0  0
    7.0214    0.6791    7.2466 H   0  0
    5.7779    0.7956    5.9555 H   0  0
    6.6003   -1.7679    7.4312 H   0  0
    5.3577   -1.6518    6.1398 H   0  0
    5.0962   -0.8288    7.7142 H   0  0
    6.2708    0.6023   -0.2364 H   0  0
    6.4291    1.6643    1.2036 H   0  0
    4.6920    2.7413   -0.6006 H   0  0
    3.0790    4.6808   -0.1880 H   0  0
    0.6883    5.3336   -0.2080 H   0  0
   -1.0786    3.5996   -0.0901 H   0  0
    1.9584    0.5276    0.0672 H   0  0
   -2.2809    2.2716   -0.0256 H   0  0
   -2.9634   -0.4270   -0.7701 H   0  0
   -2.9593   -0.3257    1.0233 H   0  0
   -4.5808    1.4173   -0.9124 H   0  0
   -6.0760   -0.5703   -1.8223 H   0  0
   -7.8050   -2.3039   -0.6263 H   0  0
   -7.4437   -2.0813    1.9834 H   0  0
   -3.8223    2.6352    0.9601 H   0  0
   -6.6217    1.7864    1.2911 H   0  0
   -6.0093    3.0526    0.1803 H   0  0
   -5.9019    3.2951    1.9618 H   0  0
   -3.2170    0.8763    2.4110 H   0  0
   -4.9531    0.4860    2.6240 H   0  0
   -4.3043    2.0500    3.2380 H   0  0
  1  2  1  0
  2  3  1  0
  3  4  1  0
  3  6  1  0
  4  5  1  0
  6 11  1  0
  6  7  2  0
  7  8  1  0
  8  9  2  0
  8 10  1  0
 10 11  1  0
 10 12  1  0
 12 13  1  0
 13 14  2  0
 13 15  1  0
 15 16  1  0
 16 21  2  0
 16 17  1  0
 17 18  2  0
 18 19  1  0
 19 20  2  0
 20 21  1  0
 20 22  1  0
 22 23  2  0
 22 24  1  0
 24 25  1  0
 25 26  1  0
 26 27  1  0
 26 32  1  0
 27 31  1  0
 27 28  2  0
 28 29  1  0
 29 30  2  0
 30 31  1  0
 32 33  1  0
 32 34  1  0
  1 35  1  0
  1 36  1  0
  1 37  1  0
  2 38  1  0
  2 39  1  0
  4 40  1  0
  4 41  1  0
  5 42  1  0
  5 43  1  0
  5 44  1  0
 12 45  1  0
 12 46  1  0
 15 47  1  0
 17 48  1  0
 18 49  1  0
 19 50  1  0
 21 51  1  0
 24 52  1  0
 25 53  1  0
 25 54  1  0
 26 55  1  0
 28 56  1  0
 29 57  1  0
 30 58  1  0
 32 59  1  0
 33 60  1  0
 33 61  1  0
 33 62  1  0
 34 63  1  0
 34 64  1  0
 34 65  1  0
M  CHG  2  10  -1  32   1
M  END
> <Name>
ZINC23236097

> <reference>
BDB50017125

> <quality>
0.788

> <status>
decoy

$$$$
ZINC27483567
  SciTegic06061311253D

 63 65  0  0  1  0            999 V2000
   -0.1530    0.2067    0.1803 C   0  0
    0.4290   -1.2040    0.0706 C   0  0  1  0  0  0
    1.1811   -1.3438   -1.2544 C   0  0
    1.7631   -2.7545   -1.3642 C   0  0
    2.7273   -3.0003   -0.2020 C   0  0
    1.9752   -2.8605    1.1230 C   0  0
    1.3932   -1.4498    1.2328 C   0  0  1  0  0  0
    2.4795   -0.4681    1.1820 N   0  0
    3.1558   -0.1362    2.3244 C   0  0
    4.1891    0.7975    2.2761 C   0  0
    4.8150    1.2178    3.4664 C   0  0
    4.1989    1.8925    4.2740 O   0  0
    6.2204    0.8405    3.7366 C   0  0
    6.9256    0.0616    2.8184 C   0  0
    8.2371   -0.2824    3.0737 C   0  0
    8.8495    0.1337    4.2424 C   0  0
    8.1541    0.9018    5.1593 C   0  0
    6.8440    1.2573    4.9132 C   0  0
   10.2804   -0.2509    4.5177 C   0  0
   10.3145   -1.5804    5.2743 C   0  0
   11.7055   -1.9543    5.5419 N   0  0
   12.0467   -3.1341    6.6528 S   0  0
   13.4652   -3.2152    6.6715 O   0  0
   11.3274   -2.7541    7.8179 O   0  0
   11.3432   -4.6520    5.9516 C   0  0
    4.5982    1.3092    1.0657 N   0  3
    5.1088    0.4898    0.1559 C   0  0
    5.5243    0.9660   -1.0707 C   0  0
    5.4147    2.3211   -1.3453 C   0  0
    4.8800    3.1564   -0.3683 C   0  0
    4.4773    2.6101    0.8392 C   0  0
    4.7553    4.4904   -0.5961 O   0  5
    2.7201   -0.8896    3.8565 S   0  5
    0.6619    0.9446    0.1421 H   0  0
   -0.6943    0.3081    1.1325 H   0  0
   -0.8464    0.3841   -0.6550 H   0  0
   -0.3866   -1.9411    0.1088 H   0  0
    0.4878   -1.1677   -2.0901 H   0  0
    1.9972   -0.6072   -1.2936 H   0  0
    2.3044   -2.8560   -2.3164 H   0  0
    0.9476   -3.4918   -1.3256 H   0  0
    3.1453   -4.0148   -0.2805 H   0  0
    3.5433   -2.2636   -0.2390 H   0  0
    2.6677   -3.0367    1.9593 H   0  0
    1.1592   -3.5972    1.1611 H   0  0
    0.8524   -1.3494    2.1854 H   0  0
    2.7342   -0.0277    0.2864 H   0  0
    6.4370   -0.2774    1.8930 H   0  0
    8.7970   -0.8888    2.3465 H   0  0
    8.6469    1.2297    6.0865 H   0  0
    6.2922    1.8680    5.6430 H   0  0
   10.8213   -0.3574    3.5658 H   0  0
   10.7603    0.5292    5.1269 H   0  0
    9.8360   -2.3621    4.6660 H   0  0
    9.7741   -1.4745    6.2266 H   0  0
   12.4712   -1.4834    5.0391 H   0  0
   11.8166   -4.9131    4.9936 H   0  0
   10.2523   -4.5756    5.8325 H   0  0
   11.5444   -5.4719    6.6567 H   0  0
    5.2021   -0.5826    0.3822 H   0  0
    5.9381    0.2782   -1.8228 H   0  0
    5.7430    2.7268   -2.3136 H   0  0
    4.0532    3.2616    1.6175 H   0  0
  1  2  1  0
  2  7  1  0
  2  3  1  0
  3  4  1  0
  4  5  1  0
  5  6  1  0
  6  7  1  0
  7  8  1  0
  8  9  1  0
  9 10  2  0
  9 33  1  0
 10 11  1  0
 10 26  1  0
 11 12  2  0
 11 13  1  0
 13 18  2  0
 13 14  1  0
 14 15  2  0
 15 16  1  0
 16 17  2  0
 16 19  1  0
 17 18  1  0
 19 20  1  0
 20 21  1  0
 21 22  1  0
 22 23  2  0
 22 24  2  0
 22 25  1  0
 26 31  2  0
 26 27  1  0
 27 28  2  0
 28 29  1  0
 29 30  2  0
 30 31  1  0
 30 32  1  0
  1 34  1  0
  1 35  1  0
  1 36  1  0
  2 37  1  0
  3 38  1  0
  3 39  1  0
  4 40  1  0
  4 41  1  0
  5 42  1  0
  5 43  1  0
  6 44  1  0
  6 45  1  0
  7 46  1  0
  8 47  1  0
 14 48  1  0
 15 49  1  0
 17 50  1  0
 18 51  1  0
 19 52  1  0
 19 53  1  0
 20 54  1  0
 20 55  1  0
 21 56  1  0
 25 57  1  0
 25 58  1  0
 25 59  1  0
 27 60  1  0
 28 61  1  0
 29 62  1  0
 31 63  1  0
M  CHG  3  26   1  32  -1  33  -1
M  END
> <Name>
ZINC27483567

> <reference>
BDB50017125

> <quality>
0.787

> <status>
decoy

$$$$
ZINC06041845
  SciTegic06061311253D

 63 65  0  0  1  0            999 V2000
   -0.9831    1.0976    3.5730 C   0  0
   -0.1499    0.9722    4.7763 N   0  0
    0.9503    0.0235    4.5582 C   0  0
    2.2132    0.7899    4.1599 C   0  0
    3.3591   -0.1982    3.9328 C   0  0
    4.6220    0.5682    3.5345 C   0  0
    5.9723   -0.5962    3.2668 Cl  0  0
   -1.0768    0.5250    6.1079 P   0  0  1  0  0  0
   -0.1947    0.3304    7.2802 O   0  0
   -2.1485    1.6828    6.4290 O   0  0
   -1.7925    2.9258    7.0375 C   0  0
   -3.0001    3.8261    7.0846 C   0  0
   -3.8934    3.8921    8.0881 C   0  0
   -4.8543    4.8609    7.7180 C   0  0
   -4.4908    5.3290    6.5105 C   0  0
   -3.3638    4.7027    6.1343 O   0  0
   -5.2077    6.3635    5.7312 N   0  0
   -6.2225    6.8680    6.1776 O   0  0
   -4.7829    6.7101    4.6435 O   0  0
   -1.8516   -0.8490    5.7854 O   0  0
   -1.2033   -2.1223    5.7674 C   0  0
   -2.2247   -3.2099    5.4283 C   0  0  2  0  0  0
   -1.5742   -4.6077    5.5256 C   0  0  1  0  0  0
   -2.2159   -5.4020    4.3661 C   0  0  1  0  0  0
   -3.1782   -4.3901    3.7053 C   0  0  1  0  0  0
   -2.6447   -3.0934    4.0513 O   0  0
   -3.1867   -4.5691    2.2513 N   0  0
   -4.3242   -4.9839    1.6261 C   0  0
   -4.3196   -5.1457    0.2817 C   0  0
   -3.1344   -4.8795   -0.4342 C   0  0
   -2.0509   -4.4776    0.2174 N   0  0
   -2.0727   -4.3178    1.5394 C   0  0
   -1.0648   -3.9424    2.1151 O   0  0
   -3.1016   -5.0360   -1.8005 N   0  0
   -1.2171   -5.8243    3.4355 O   0  0
   -0.1595   -4.5152    5.3466 O   0  0
   -1.3950    0.1092    3.3212 H   0  0
   -0.3552    1.4485    2.7408 H   0  0
   -1.8019    1.8103    3.7507 H   0  0
    1.1397   -0.5379    5.4850 H   0  0
    0.6784   -0.6766    3.7545 H   0  0
    2.0246    1.3512    3.2329 H   0  0
    2.4873    1.4898    4.9630 H   0  0
    3.5485   -0.7595    4.8596 H   0  0
    3.0872   -0.8983    3.1291 H   0  0
    4.8962    1.2680    4.3376 H   0  0
    4.4335    1.1295    2.6075 H   0  0
   -1.4317    2.7434    8.0605 H   0  0
   -0.9985    3.4091    6.4494 H   0  0
   -3.8791    3.3050    9.0182 H   0  0
   -5.7310    5.1722    8.3049 H   0  0
   -0.7660   -2.3264    6.7559 H   0  0
   -0.4074   -2.1180    5.0081 H   0  0
   -3.0628   -3.0908    6.1308 H   0  0
   -1.7344   -5.0828    6.5047 H   0  0
   -2.7284   -6.3130    4.7087 H   0  0
   -4.2159   -4.5170    4.0474 H   0  0
   -5.2363   -5.1851    2.2072 H   0  0
   -5.2264   -5.4796   -0.2438 H   0  0
   -3.9456   -5.3486   -2.3013 H   0  0
   -2.2350   -4.8411   -2.3220 H   0  0
   -0.5598   -6.3971    3.9046 H   0  0
    0.2171   -3.9259    6.0473 H   0  0
  1  2  1  0
  2  3  1  0
  2  8  1  0
  3  4  1  0
  4  5  1  0
  5  6  1  0
  6  7  1  0
  8  9  2  0
  8 10  1  0
  8 20  1  0
 10 11  1  0
 11 12  1  0
 12 16  1  0
 12 13  2  0
 13 14  1  0
 14 15  2  0
 15 16  1  0
 15 17  1  0
 17 18  2  0
 17 19  2  0
 20 21  1  0
 21 22  1  0
 22 26  1  0
 22 23  1  0
 23 24  1  0
 23 36  1  0
 24 25  1  0
 24 35  1  0
 25 26  1  0
 25 27  1  0
 27 32  1  0
 27 28  1  0
 28 29  2  0
 29 30  1  0
 30 31  2  0
 30 34  1  0
 31 32  1  0
 32 33  2  0
  1 37  1  0
  1 38  1  0
  1 39  1  0
  3 40  1  0
  3 41  1  0
  4 42  1  0
  4 43  1  0
  5 44  1  0
  5 45  1  0
  6 46  1  0
  6 47  1  0
 11 48  1  0
 11 49  1  0
 13 50  1  0
 14 51  1  0
 21 52  1  0
 21 53  1  0
 22 54  1  0
 23 55  1  0
 24 56  1  0
 25 57  1  0
 28 58  1  0
 29 59  1  0
 34 60  1  0
 34 61  1  0
 35 62  1  0
 36 63  1  0
M  END
> <Name>
ZINC06041845

> <reference>
BDB50017125

> <quality>
0.784

> <status>
decoy

$$$$
ZINC28927330
  SciTegic06061311253D

 63 65  0  0  1  0            999 V2000
   -5.4721   -2.5416   -6.6836 C   0  0
   -3.9959   -2.9435   -6.6872 C   0  0
   -3.1675   -1.7621   -6.9630 N   0  0
   -3.5167   -1.1652   -8.2591 C   0  0
   -3.0081   -2.0460   -9.3711 C   0  0
   -3.1573   -1.6180  -10.6526 N   0  0
   -2.7172   -2.3718  -11.6866 C   0  0
   -2.8443   -1.9998  -12.8391 O   0  0
   -2.0799   -3.6554  -11.3657 C   0  0
   -1.5930   -4.5039  -12.3605 C   0  0
   -1.0017   -5.6987  -12.0062 C   0  0
   -0.8898   -6.0614  -10.6597 C   0  0
   -1.3675   -5.2309   -9.6647 C   0  0
   -1.9680   -4.0186  -10.0045 C   0  0
   -2.4452   -3.1724   -9.0563 N   0  0
   -0.3054   -7.2415  -10.3275 O   0  0
   -0.2208   -7.5546   -8.9358 C   0  0
   -0.5245   -6.5292  -12.9718 O   0  0
   -0.6701   -6.0996  -14.3269 C   0  0
   -3.2814   -0.7750   -5.8810 C   0  0
   -2.6867   -1.3430   -4.6182 C   0  0
   -2.2137   -2.4618   -4.6194 O   0  0
   -2.6793   -0.5751   -3.4342 C   0  0
   -2.0253   -1.0324   -2.2771 C   0  0
   -2.0461   -0.2538   -1.1552 N   0  0
   -2.6802    0.9290   -1.1386 C   0  0
   -2.6735    1.5824   -0.1137 O   0  0
   -3.3171    1.4197   -2.2142 N   0  0
   -3.3550    0.7273   -3.3714 C   0  0
   -3.9367    1.1730   -4.3432 O   0  0
   -1.3679   -0.7219    0.0561 C   0  0
    0.0824   -0.2347    0.0491 C   0  0
    0.1061    1.1918    0.1298 O   0  0
    1.4207    1.7522    0.1302 C   0  0
   -1.3816   -2.2312   -2.2748 N   0  0
   -5.7425   -2.1262   -7.6656 H   0  0
   -5.6450   -1.7837   -5.9054 H   0  0
   -6.0930   -3.4258   -6.4771 H   0  0
   -3.7263   -3.3585   -5.7048 H   0  0
   -3.8230   -3.7014   -7.4654 H   0  0
   -3.0565   -0.1695   -8.3414 H   0  0
   -4.6099   -1.0715   -8.3372 H   0  0
   -3.6096   -0.7114  -10.8383 H   0  0
   -1.6801   -4.2220  -13.4202 H   0  0
   -1.2747   -5.5243   -8.6086 H   0  0
   -1.2512   -7.5347   -8.5512 H   0  0
    0.3309   -6.7272   -8.4657 H   0  0
    0.2637   -8.5238   -8.7464 H   0  0
   -0.1644   -5.1253  -14.3985 H   0  0
   -1.7460   -5.9337  -14.4849 H   0  0
   -0.2614   -6.8222  -15.0486 H   0  0
   -4.3417   -0.5363   -5.7110 H   0  0
   -2.7398    0.1405   -6.1612 H   0  0
   -3.7827    2.3366   -2.1549 H   0  0
   -1.3844   -1.8214    0.0853 H   0  0
   -1.8836   -0.3237    0.9424 H   0  0
    0.6161   -0.6592    0.9122 H   0  0
    0.5741   -0.5568   -0.8807 H   0  0
    1.9201    1.4270   -0.7944 H   0  0
    1.9628    1.3255    0.9870 H   0  0
    1.3921    2.8500    0.1934 H   0  0
   -1.3748   -2.8066   -3.1290 H   0  0
   -0.9037   -2.5624   -1.4246 H   0  0
  1  2  1  0
  2  3  1  0
  3  4  1  0
  3 20  1  0
  4  5  1  0
  5 15  2  0
  5  6  1  0
  6  7  1  0
  7  8  2  0
  7  9  1  0
  9 14  2  0
  9 10  1  0
 10 11  2  0
 11 12  1  0
 11 18  1  0
 12 13  2  0
 12 16  1  0
 13 14  1  0
 14 15  1  0
 16 17  1  0
 18 19  1  0
 20 21  1  0
 21 22  2  0
 21 23  1  0
 23 29  1  0
 23 24  2  0
 24 25  1  0
 24 35  1  0
 25 26  1  0
 25 31  1  0
 26 27  2  0
 26 28  1  0
 28 29  1  0
 29 30  2  0
 31 32  1  0
 32 33  1  0
 33 34  1  0
  1 36  1  0
  1 37  1  0
  1 38  1  0
  2 39  1  0
  2 40  1  0
  4 41  1  0
  4 42  1  0
  6 43  1  0
 10 44  1  0
 13 45  1  0
 17 46  1  0
 17 47  1  0
 17 48  1  0
 19 49  1  0
 19 50  1  0
 19 51  1  0
 20 52  1  0
 20 53  1  0
 28 54  1  0
 31 55  1  0
 31 56  1  0
 32 57  1  0
 32 58  1  0
 34 59  1  0
 34 60  1  0
 34 61  1  0
 35 62  1  0
 35 63  1  0
M  END
> <Name>
ZINC28927330

> <reference>
BDB50017125

> <quality>
0.780

> <status>
decoy

$$$$
ZINC25585889
  SciTegic06061311253D

 65 66  0  0  0  0            999 V2000
   -2.7146    2.4329   -4.7111 C   0  0
   -2.0499    2.3521   -6.0611 C   0  0
   -2.7210    2.7822   -7.1890 C   0  0
   -2.1140    2.7027   -8.4290 C   0  0
   -0.8313    2.1987   -8.5431 C   0  0
   -0.1526    1.7726   -7.4183 C   0  0
   -0.7595    1.8508   -6.1717 C   0  0
   -0.0745    1.4200   -5.0301 N   0  0
    0.0208    2.2287   -3.9562 C   0  0
   -0.4093    3.3615   -4.0099 O   0  0
    0.6618    1.7254   -2.6885 C   0  0
    0.6423    2.8326   -1.6328 C   0  0
    1.2930    2.3217   -0.3458 C   0  0
    1.2738    3.4123    0.6941 C   0  0
    0.7896    4.4872    0.4328 O   0  0
    1.8588    3.1613    2.0600 C   0  0
    1.4820    2.6543    3.4580 C   0  0
    1.9785    3.6494    4.4820 C   0  0
    1.1729    4.1657    5.3324 N   0  0
    1.6173    5.1777    6.1934 N   0  0
    0.8027    5.6464    7.1594 C   0  0
   -0.3150    5.1921    7.2835 O   0  0
    1.2807    6.7350    8.0855 C   0  0
    0.2137    7.0680    9.0433 C   0  0
   -0.6098    7.3249    9.7825 N   0  0
    3.4430    4.0245    4.4835 C   0  0
    3.7058    4.9820    1.8396 C   0  0
    3.3233    3.5363    2.0616 C   0  0
    4.2237    2.6456    2.2476 N   0  0
    5.5780    2.9813    2.1217 N   0  0
    6.5217    2.0243    2.2216 C   0  0
    6.1984    0.8723    2.4205 O   0  0
    7.9784    2.3855    2.0861 C   0  0
    8.8003    1.1732    2.2329 C   0  0
    9.4345    0.2375    2.3461 N   0  0
    1.2454    1.2240   -7.5436 C   0  0
   -2.0335    3.0367   -4.0935 H   0  0
   -2.6860    1.4063   -4.3172 H   0  0
   -3.7341    2.8449   -4.7401 H   0  0
   -3.7394    3.1884   -7.1009 H   0  0
   -2.6526    3.0411   -9.3264 H   0  0
   -0.3510    2.1371   -9.5308 H   0  0
    0.3569    0.4849   -5.0105 H   0  0
    0.1031    0.8543   -2.3158 H   0  0
    1.7024    1.4334   -2.8933 H   0  0
    1.2012    3.7039   -2.0047 H   0  0
   -0.3977    3.1252   -1.4258 H   0  0
    2.3336    2.0297   -0.5506 H   0  0
    0.7343    1.4506    0.0269 H   0  0
    1.9533    1.6765    3.6363 H   0  0
    0.3886    2.5617    3.5345 H   0  0
    2.5665    5.5635    6.0881 H   0  0
    1.5386    7.6295    7.4995 H   0  0
    2.1688    6.3868    8.6332 H   0  0
    3.6540    4.8497    5.1796 H   0  0
    4.0922    3.1449    4.6055 H   0  0
    4.7869    5.1773    1.7840 H   0  0
    2.8623    5.6853    1.7771 H   0  0
    3.9524    1.6819    2.4899 H   0  0
    5.8525    3.9596    1.9528 H   0  0
    8.2519    3.1098    2.8674 H   0  0
    8.1555    2.8302    1.0957 H   0  0
    1.8214    2.0201   -8.0381 H   0  0
    1.1625    0.3913   -8.2576 H   0  0
    1.6900    0.9151   -6.5860 H   0  0
  1  2  1  0
  2  7  2  0
  2  3  1  0
  3  4  2  0
  4  5  1  0
  5  6  2  0
  6  7  1  0
  6 36  1  0
  7  8  1  0
  8  9  1  0
  9 10  2  0
  9 11  1  0
 11 12  1  0
 12 13  1  0
 13 14  1  0
 14 15  2  0
 14 16  1  0
 16 17  1  0
 16 28  2  0
 17 18  1  0
 18 19  2  0
 18 26  1  0
 19 20  1  0
 20 21  1  0
 21 22  2  0
 21 23  1  0
 23 24  1  0
 24 25  3  0
 26 27  1  0
 27 28  1  0
 28 29  1  0
 29 30  1  0
 30 31  1  0
 31 32  2  0
 31 33  1  0
 33 34  1  0
 34 35  3  0
  1 37  1  0
  1 38  1  0
  1 39  1  0
  3 40  1  0
  4 41  1  0
  5 42  1  0
  8 43  1  0
 11 44  1  0
 11 45  1  0
 12 46  1  0
 12 47  1  0
 13 48  1  0
 13 49  1  0
 17 50  1  0
 17 51  1  0
 20 52  1  0
 23 53  1  0
 23 54  1  0
 26 55  1  0
 26 56  1  0
 27 57  1  0
 27 58  1  0
 29 59  1  0
 30 60  1  0
 33 61  1  0
 33 62  1  0
 36 63  1  0
 36 64  1  0
 36 65  1  0
M  END
> <Name>
ZINC25585889

> <reference>
BDB50017125

> <quality>
0.780

> <status>
decoy

$$$$
ZINC21981708
  SciTegic06061311253D

 60 63  0  0  1  0            999 V2000
    1.2324    4.3705    5.4397 C   0  0
    2.2591    5.4491    5.6713 C   0  0
    2.2052    6.1329    6.6718 O   0  0
    3.3239    5.6723    4.6864 C   0  0
    4.1413    4.6772    4.3573 C   0  0
    5.3040    4.7102    3.4194 C   0  0
    5.2131    6.1171    2.2691 S   0  0
    4.6719    7.4601    3.3803 C   0  0  2  0  0  0
    3.4794    6.9362    4.0997 N   0  0
    2.7895    8.0147    3.7474 C   0  0
    1.7150    8.4455    4.1096 O   0  0
    3.8147    8.5350    2.7376 C   0  0  1  0  0  0
    4.2743    9.9036    2.9863 N   0  0
    3.9588   10.8880    2.1214 C   0  0
    3.2944   10.6407    1.1374 O   0  0
    4.4315   12.2959    2.3772 C   0  0
    3.9476   13.1971    1.2705 C   0  0
    3.2224   14.3067    1.5480 C   0  0
    2.9502   14.9464   -0.0981 S   0  0
    3.7966   13.7037   -0.9667 C   0  0
    4.2163   12.9201    0.0083 N   0  0
    3.9834   13.5694   -2.3336 N   0  0
    3.8561    3.3477    5.0069 C   0  0
    2.9919    2.2754    3.8324 S   0  0
    2.7904    0.8338    4.8254 C   0  0
    3.1926    0.6782    6.0681 N   0  0
    2.8874   -0.4934    6.4963 N   0  0
    2.2739   -1.1599    5.5792 N   0  0
    2.1923   -0.3224    4.4529 N   0  0
    1.5848   -0.6321    3.1563 C   0  0
    2.6398   -1.2425    2.2315 C   0  0
    2.0306   -1.5531    0.9314 N   0  3
    1.6229   -0.3259    0.2344 C   0  0
    2.9412   -2.3524    0.1008 C   0  0
    0.2586    4.8813    5.4684 H   0  0
    1.2914    3.7150    6.3211 H   0  0
    1.3865    3.8198    4.5000 H   0  0
    5.3279    3.7730    2.8440 H   0  0
    6.2335    4.7794    4.0036 H   0  0
    5.6052    7.7913    3.8591 H   0  0
    3.6348    8.6334    1.6569 H   0  0
    4.8385   10.1136    3.8221 H   0  0
    4.0300   12.6487    3.3386 H   0  0
    5.5309   12.3145    2.4100 H   0  0
    2.8921   14.7044    2.5189 H   0  0
    3.5448   14.3309   -2.8709 H   0  0
    4.4979   12.8062   -2.7959 H   0  0
    4.8032    2.8748    5.3059 H   0  0
    3.2257    3.5001    5.8954 H   0  0
    0.7631   -1.3496    3.2982 H   0  0
    1.1919    0.2906    2.7044 H   0  0
    3.0331   -2.1661    2.6813 H   0  0
    3.4616   -0.5253    2.0888 H   0  0
    1.1847   -2.1148    1.1044 H   0  0
    2.5091    0.3078    0.0827 H   0  0
    0.8972    0.2140    0.8604 H   0  0
    1.1689   -0.5736   -0.7364 H   0  0
    3.1755   -3.2881    0.6295 H   0  0
    3.8704   -1.7848   -0.0553 H   0  0
    2.4723   -2.5772   -0.8685 H   0  0
  1  2  1  0
  2  3  2  0
  2  4  1  0
  4  9  1  0
  4  5  2  0
  5  6  1  0
  5 23  1  0
  6  7  1  0
  7  8  1  0
  8 12  1  0
  8  9  1  0
  9 10  1  0
 10 11  2  0
 10 12  1  0
 12 13  1  0
 13 14  1  0
 14 15  2  0
 14 16  1  0
 16 17  1  0
 17 21  1  0
 17 18  2  0
 18 19  1  0
 19 20  1  0
 20 21  2  0
 20 22  1  0
 23 24  1  0
 24 25  1  0
 25 29  1  0
 25 26  2  0
 26 27  1  0
 27 28  2  0
 28 29  1  0
 29 30  1  0
 30 31  1  0
 31 32  1  0
 32 33  1  0
 32 34  1  0
  1 35  1  0
  1 36  1  0
  1 37  1  0
  6 38  1  0
  6 39  1  0
  8 40  1  0
 12 41  1  0
 13 42  1  0
 16 43  1  0
 16 44  1  0
 18 45  1  0
 22 46  1  0
 22 47  1  0
 23 48  1  0
 23 49  1  0
 30 50  1  0
 30 51  1  0
 31 52  1  0
 31 53  1  0
 32 54  1  0
 33 55  1  0
 33 56  1  0
 33 57  1  0
 34 58  1  0
 34 59  1  0
 34 60  1  0
M  CHG  1  32   1
M  END
> <Name>
ZINC21981708

> <reference>
BDB50017125

> <quality>
0.772

> <status>
decoy

$$$$
ZINC13000024
  SciTegic06061311253D

 69 71  0  0  1  0            999 V2000
    0.3064    3.1117   -3.0525 C   0  0
   -0.6910    3.2129   -1.8967 C   0  0
   -0.8975    1.8855   -1.3122 N   0  0
   -1.8827    0.9727   -1.8973 C   0  0
   -3.2670    1.2798   -1.3225 C   0  0
   -0.0172    1.4168    0.0098 S   0  0
    0.0021   -0.0041    0.0020 O   0  0
    1.1718    2.1948    0.0027 O   0  0
   -0.9267    1.9002    1.4394 C   0  0
   -0.7172    3.1446    2.0038 C   0  0
   -1.4342    3.5257    3.1225 C   0  0
   -2.3533    2.6585    3.6830 C   0  0
   -2.5590    1.4121    3.1216 C   0  0
   -1.8458    1.0330    1.9999 C   0  0
   -3.1305    3.0716    4.9062 C   0  0  1  0  0  0
   -2.2580    2.8908    6.1500 C   0  0
   -4.7190    4.7673    5.5874 C   0  0
   -5.0902    6.2201    5.4372 C   0  0
   -4.4238    6.9463    4.7304 O   0  0
   -6.1627    6.7124    6.0882 N   0  0
   -6.5078    8.0630    5.9486 N   0  0
   -7.5438    8.5082    5.2079 C   0  0
   -8.3236    7.8421    4.5615 O   0  0
   -7.5279   10.0126    5.3546 C   0  0  2  0  0  0
   -8.8228   10.4973    5.9974 C   0  0
   -8.7753   12.0184    6.1630 C   0  0
   -8.5901   12.6737    4.7928 C   0  0  2  0  0  0
   -7.2756   12.1967    4.1719 C   0  0
   -7.3167   10.6763    3.9983 C   0  0
   -8.5547   14.1946    4.9557 C   0  0
   -6.3849   10.2725    6.2390 N   0  5
   -5.8540    9.0715    6.5381 C   0  0
   -4.8878    8.9204    7.2598 O   0  0
   -3.5175    4.4892    4.7779 N   0  3
   -0.0890    2.4310   -3.8208 H   0  0
    1.2651    2.7236   -2.6779 H   0  0
    0.4619    4.1081   -3.4918 H   0  0
   -0.2947    3.8935   -1.1288 H   0  0
   -1.6497    3.6010   -2.2712 H   0  0
   -1.9021    1.1048   -2.9892 H   0  0
   -1.6094   -0.0657   -1.6584 H   0  0
   -3.5424    2.3176   -1.5615 H   0  0
   -3.2492    1.1480   -0.2306 H   0  0
   -4.0073    0.5947   -1.7614 H   0  0
    0.0201    3.8315    1.5627 H   0  0
   -1.2734    4.5191    3.5667 H   0  0
   -3.2903    0.7220    3.5676 H   0  0
   -2.0096    0.0412    1.5532 H   0  0
   -4.0324    2.4488    5.0001 H   0  0
   -1.3568    3.5152    6.0609 H   0  0
   -1.9640    1.8349    6.2426 H   0  0
   -2.8248    3.1922    7.0433 H   0  0
   -4.5078    4.5492    6.6447 H   0  0
   -5.5501    4.1366    5.2390 H   0  0
   -6.7286    6.0956    6.6884 H   0  0
   -8.9424   10.0257    6.9839 H   0  0
   -9.6744   10.2255    5.3563 H   0  0
   -9.7166   12.3682    6.6121 H   0  0
   -7.9333   12.2913    6.8161 H   0  0
   -9.4277   12.3942    4.1368 H   0  0
   -7.1391   12.6738    3.1902 H   0  0
   -6.4377   12.4673    4.8313 H   0  0
   -6.3659   10.3316    3.5657 H   0  0
   -8.1438   10.4074    3.3248 H   0  0
   -7.7172   14.4749    5.6115 H   0  0
   -9.4997   14.5389    5.4012 H   0  0
   -8.4216   14.6665    3.9710 H   0  0
   -2.7426    5.0854    5.1021 H   0  0
   -3.7158    4.7019    3.7898 H   0  0
  1  2  1  0
  2  3  1  0
  3  4  1  0
  3  6  1  0
  4  5  1  0
  6  7  2  0
  6  8  2  0
  6  9  1  0
  9 14  2  0
  9 10  1  0
 10 11  2  0
 11 12  1  0
 12 13  2  0
 12 15  1  0
 13 14  1  0
 15 16  1  0
 15 34  1  0
 17 18  1  0
 17 34  1  0
 18 19  2  0
 18 20  1  0
 20 21  1  0
 21 32  1  0
 21 22  1  0
 22 23  2  0
 22 24  1  0
 24 29  1  0
 24 25  1  0
 24 31  1  0
 25 26  1  0
 26 27  1  0
 27 28  1  0
 27 30  1  0
 28 29  1  0
 31 32  1  0
 32 33  2  0
  1 35  1  0
  1 36  1  0
  1 37  1  0
  2 38  1  0
  2 39  1  0
  4 40  1  0
  4 41  1  0
  5 42  1  0
  5 43  1  0
  5 44  1  0
 10 45  1  0
 11 46  1  0
 13 47  1  0
 14 48  1  0
 15 49  1  0
 16 50  1  0
 16 51  1  0
 16 52  1  0
 17 53  1  0
 17 54  1  0
 20 55  1  0
 25 56  1  0
 25 57  1  0
 26 58  1  0
 26 59  1  0
 27 60  1  0
 28 61  1  0
 28 62  1  0
 29 63  1  0
 29 64  1  0
 30 65  1  0
 30 66  1  0
 30 67  1  0
 34 68  1  0
 34 69  1  0
M  CHG  2  31  -1  34   1
M  END
> <Name>
ZINC13000024

> <reference>
BDB50017125

> <quality>
0.770

> <status>
decoy

$$$$
ZINC19609997
  SciTegic06061311253D

 60 61  0  0  1  0            999 V2000
    4.1436    3.8927    4.7510 C   0  0
    3.5582    3.2655    3.4841 C   0  0
    2.1318    3.3365    3.5328 O   0  0
    1.4567    2.8231    2.4832 C   0  0
    2.0642    2.3286    1.5521 O   0  0
    0.0427    2.8598    2.4654 C   0  0
   -0.6514    2.4945    1.3661 C   0  0
   -2.0163    2.5349    1.3487 N   0  0
   -2.7612    2.9187    2.3931 C   0  0
   -3.9719    2.9168    2.2841 O   0  0
   -2.2123    3.3119    3.5595 N   0  0
   -0.7446    3.3099    3.6793 C   0  0  2  0  0  0
   -0.2982    4.7305    4.0309 C   0  0
    0.0925    2.0407    0.1366 C   0  0
    0.1034    0.2280    0.0711 S   0  0
    1.0239   -0.1508   -1.4455 C   0  0
    1.1079   -1.6451   -1.6222 C   0  0
    0.5990   -2.3792   -0.8085 O   0  0
    1.7480   -2.1605   -2.6834 O   0  0
    1.7894   -3.6080   -2.7892 C   0  0
    2.5435   -3.9994   -4.0339 C   0  0
    3.0009   -3.1430   -4.7600 O   0  0
    2.7095   -5.3015   -4.3398 N   0  0
    3.3840   -5.6515   -5.4529 C   0  0
    3.8425   -4.7929   -6.1809 O   0  0
    3.5500   -6.9535   -5.7588 N   0  0
    4.3410   -7.3202   -6.8559 C   0  0
    4.0095   -8.4392   -7.6080 C   0  0
    4.7858   -8.7963   -8.6928 C   0  0
    5.9037   -8.0445   -9.0237 C   0  0
    6.2387   -6.9297   -8.2692 C   0  0
    5.4597   -6.5679   -7.1879 C   0  0
    6.6712   -8.4003  -10.0882 O   0  0
    6.2677   -9.5592  -10.8205 C   0  0
    3.7799    3.3462    5.6337 H   0  0
    3.8317    4.9454    4.8180 H   0  0
    5.2416    3.8384    4.7142 H   0  0
    3.9221    3.8128    2.6020 H   0  0
    3.8701    2.2128    3.4170 H   0  0
   -2.4999    2.2544    0.4836 H   0  0
   -2.8053    3.6068    4.3484 H   0  0
   -0.5249    2.5596    4.4531 H   0  0
   -0.5021    5.4115    3.1914 H   0  0
    0.7759    4.7434    4.2680 H   0  0
   -0.8616    5.0722    4.9117 H   0  0
   -0.4059    2.4364   -0.7606 H   0  0
    1.1274    2.4116    0.1750 H   0  0
    2.0390    0.2668   -1.3736 H   0  0
    0.5057    0.2915   -2.3092 H   0  0
    0.7639   -4.0023   -2.8435 H   0  0
    2.2967   -4.0259   -1.9072 H   0  0
    2.3209   -6.0291   -3.7229 H   0  0
    3.0955   -7.6791   -5.1862 H   0  0
    3.1287   -9.0411   -7.3398 H   0  0
    4.5177   -9.6771   -9.2947 H   0  0
    7.1251   -6.3338   -8.5323 H   0  0
    5.7254   -5.6838   -6.5897 H   0  0
    5.2382   -9.3688  -11.1581 H   0  0
    6.2378  -10.3873  -10.0970 H   0  0
    6.9361   -9.7830  -11.6650 H   0  0
  1  2  1  0
  2  3  1  0
  3  4  1  0
  4  5  2  0
  4  6  1  0
  6 12  1  0
  6  7  2  0
  7  8  1  0
  7 14  1  0
  8  9  1  0
  9 10  2  0
  9 11  1  0
 11 12  1  0
 12 13  1  0
 14 15  1  0
 15 16  1  0
 16 17  1  0
 17 18  2  0
 17 19  1  0
 19 20  1  0
 20 21  1  0
 21 22  2  0
 21 23  1  0
 23 24  1  0
 24 25  2  0
 24 26  1  0
 26 27  1  0
 27 32  2  0
 27 28  1  0
 28 29  2  0
 29 30  1  0
 30 31  2  0
 30 33  1  0
 31 32  1  0
 33 34  1  0
  1 35  1  0
  1 36  1  0
  1 37  1  0
  2 38  1  0
  2 39  1  0
  8 40  1  0
 11 41  1  0
 12 42  1  0
 13 43  1  0
 13 44  1  0
 13 45  1  0
 14 46  1  0
 14 47  1  0
 16 48  1  0
 16 49  1  0
 20 50  1  0
 20 51  1  0
 23 52  1  0
 26 53  1  0
 28 54  1  0
 29 55  1  0
 31 56  1  0
 32 57  1  0
 34 58  1  0
 34 59  1  0
 34 60  1  0
M  END
> <Name>
ZINC19609997

> <reference>
BDB50017125

> <quality>
0.769

> <status>
decoy

$$$$
ZINC25238417
  SciTegic06061311253D

 70 72  0  0  1  0            999 V2000
    5.4957    2.3983   -2.4997 C   0  0
    5.4211    1.7460   -1.1432 C   0  0
    6.2559    0.9292   -0.8164 O   0  0
    4.4266    2.0703   -0.2933 N   0  0
    4.3541    1.4361    1.0254 C   0  0
    3.1410    1.9766    1.7852 C   0  0
    3.0685    1.3425    3.1038 N   0  0
    2.0741    1.6668    3.9538 C   0  0
    1.2392    2.4836    3.6269 O   0  0
    1.9994    1.0145    5.3102 C   0  0
    0.7865    1.5549    6.0700 C   0  0  2  0  0  0
    0.9614    3.0352    6.3415 C   0  0
    1.3491    3.4435    7.5733 C   0  0
    1.4187    5.2073    7.3912 S   0  0
    0.9325    5.2679    5.7234 C   0  0
    0.7603    3.9935    5.4400 N   0  0
    0.7673    6.3762    4.9008 N   0  0
    0.9957    7.6136    5.3834 C   0  0
    1.3452    7.7603    6.5355 O   0  0
    0.8166    8.8152    4.4916 C   0  0
    1.1966   10.3233    5.4254 S   0  0
    0.9364   11.6592    4.2261 C   0  0
    1.6400    2.6073    8.7649 C   0  0
    1.6605    1.1040    8.4212 C   0  0  2  0  0  0
    0.6127    0.7705    7.3751 C   0  0  1  0  0  0
   -0.7941    0.9964    7.9254 C   0  0
   -1.0046    0.1460    9.1775 C   0  0
    0.0145    0.5230   10.2463 C   0  0  2  0  0  0
    1.4489    0.3703    9.7505 C   0  0  2  0  0  0
    2.3709    1.0142   10.8156 C   0  0
    1.8470   -1.1036    9.6906 C   0  0
    1.8785   -1.6427   11.0137 O   0  0
   -0.1777   -0.3132   11.3942 O   0  0
    0.7190   -0.7004    6.9322 C   0  0
    5.4851    1.5707   -3.2243 H   0  0
    6.4891    2.8686   -2.5449 H   0  0
    4.6848    3.1195   -2.6792 H   0  0
    3.7176    2.7640   -0.5709 H   0  0
    4.2547    0.3474    0.9039 H   0  0
    5.2701    1.6597    1.5919 H   0  0
    3.2400    3.0653    1.9074 H   0  0
    2.2238    1.7528    1.2206 H   0  0
    3.7775    0.6488    3.3813 H   0  0
    2.9154    1.2380    5.8767 H   0  0
    1.9000   -0.0742    5.1887 H   0  0
   -0.1203    1.4272    5.4606 H   0  0
    0.4703    6.2517    3.9224 H   0  0
    1.4960    8.7372    3.6300 H   0  0
   -0.2234    8.8575    4.1358 H   0  0
   -0.1072   11.7108    3.8823 H   0  0
    1.6260   11.5901    3.3719 H   0  0
    1.1543   12.6059    4.7421 H   0  0
    2.6181    2.8960    9.1773 H   0  0
    0.8724    2.7911    9.5311 H   0  0
    2.6127    0.7913    7.9679 H   0  0
   -1.5357    0.7141    7.1636 H   0  0
   -0.9210    2.0590    8.1801 H   0  0
   -2.0197    0.3140    9.5665 H   0  0
   -0.8875   -0.9174    8.9217 H   0  0
   -0.1420    1.5813   10.5024 H   0  0
    2.1164    2.0770   10.9411 H   0  0
    3.4233    0.9189   10.5099 H   0  0
    2.2276    0.4953   11.7749 H   0  0
    2.8431   -1.1972    9.2335 H   0  0
    1.1130   -1.6575    9.0869 H   0  0
    0.9823   -1.5601   11.4261 H   0  0
   -0.0525   -1.2619   11.1404 H   0  0
    1.7046   -0.9332    6.5028 H   0  0
   -0.0842   -0.9819    6.2353 H   0  0
    0.6007   -1.3171    7.8353 H   0  0
  1  2  1  0
  2  3  2  0
  2  4  1  0
  4  5  1  0
  5  6  1  0
  6  7  1  0
  7  8  1  0
  8  9  2  0
  8 10  1  0
 10 11  1  0
 11 25  1  0
 11 12  1  0
 12 16  1  0
 12 13  2  0
 13 14  1  0
 13 23  1  0
 14 15  1  0
 15 16  2  0
 15 17  1  0
 17 18  1  0
 18 19  2  0
 18 20  1  0
 20 21  1  0
 21 22  1  0
 23 24  1  0
 24 29  1  0
 24 25  1  0
 25 26  1  0
 25 34  1  0
 26 27  1  0
 27 28  1  0
 28 29  1  0
 28 33  1  0
 29 30  1  0
 29 31  1  0
 31 32  1  0
  1 35  1  0
  1 36  1  0
  1 37  1  0
  4 38  1  0
  5 39  1  0
  5 40  1  0
  6 41  1  0
  6 42  1  0
  7 43  1  0
 10 44  1  0
 10 45  1  0
 11 46  1  0
 17 47  1  0
 20 48  1  0
 20 49  1  0
 22 50  1  0
 22 51  1  0
 22 52  1  0
 23 53  1  0
 23 54  1  0
 24 55  1  0
 26 56  1  0
 26 57  1  0
 27 58  1  0
 27 59  1  0
 28 60  1  0
 30 61  1  0
 30 62  1  0
 30 63  1  0
 31 64  1  0
 31 65  1  0
 32 66  1  0
 33 67  1  0
 34 68  1  0
 34 69  1  0
 34 70  1  0
M  END
> <Name>
ZINC25238417

> <reference>
BDB50017125

> <quality>
0.765

> <status>
decoy

$$$$
ZINC21876770
  SciTegic06061311253D

 74 77  0  0  1  0            999 V2000
   14.3182    8.9288   -2.8441 C   0  0
   14.4220    8.7081   -1.3336 C   0  0
   14.0522    7.3227   -1.0146 N   0  3
   14.3645    7.0032    0.3854 C   0  0
   14.0392    5.5322    0.6550 C   0  0
   12.6196    5.2861    0.3658 N   0  0
   12.3073    5.6055   -1.0343 C   0  0
   12.6326    7.0766   -1.3039 C   0  0
   12.2498    3.9007    0.6848 C   0  0
   10.7292    3.7488    0.6107 C   0  0
   10.3440    2.3058    0.9429 C   0  0
    8.8880    2.1603    0.8720 N   0  0
    8.3167    0.9668    1.1282 C   0  0
    9.0097    0.0110    1.4181 O   0  0
    6.8482    0.8201    1.0567 C   0  0
    6.1142   -0.3636    1.2984 C   0  0
    4.8188   -0.0195    1.1174 C   0  0
    4.7892    1.3183    0.7802 N   0  0
    5.9809    1.7728    0.7547 N   0  0
    3.5185    2.0028    0.5139 C   0  0
    2.5178    1.0017   -0.0604 C   0  0  2  0  0  0
    2.4622   -0.2397    0.7021 N   0  0
    3.5780   -0.8060    1.2235 C   0  0
    3.5559   -1.9026    1.7491 O   0  0
    1.1669   -0.8916    0.9106 C   0  0
    2.9175    0.6787   -1.5015 C   0  0
    1.1485    1.6311   -0.0655 C   0  0
    0.6784    2.0518   -1.1014 O   0  0
    0.4464    1.7266    1.0809 N   0  0
   -0.8387    2.4297    1.0964 C   0  0
   -1.4177    2.3875    2.4871 C   0  0
   -2.2505    1.3481    2.8573 C   0  0
   -2.7782    1.3058    4.1339 C   0  0
   -2.4808    2.3106    5.0390 C   0  0
   -1.6508    3.3539    4.6654 C   0  0
   -1.1201    3.3913    3.3899 C   0  0
   -2.9998    2.2727    6.2857 F   0  0
   13.2855    8.7407   -3.1731 H   0  0
   14.9994    8.2392   -3.3641 H   0  0
   14.5950    9.9661   -3.0837 H   0  0
   15.4550    8.8961   -1.0056 H   0  0
   13.7408    9.3977   -0.8135 H   0  0
   14.6116    6.7003   -1.6151 H   0  0
   15.4334    7.1824    0.5732 H   0  0
   13.7627    7.6393    1.0512 H   0  0
   14.2441    5.2973    1.7099 H   0  0
   14.6606    4.8945    0.0091 H   0  0
   11.2386    5.4263   -1.2232 H   0  0
   12.9099    4.9692   -1.6992 H   0  0
   12.4261    7.3099   -2.3589 H   0  0
   12.0105    7.7137   -0.6580 H   0  0
   12.7215    3.2193   -0.0385 H   0  0
   12.5932    3.6528    1.7000 H   0  0
   10.2569    4.4296    1.3341 H   0  0
   10.3840    3.9953   -0.4042 H   0  0
   10.8157    1.6244    0.2195 H   0  0
   10.6875    2.0579    1.9580 H   0  0
    8.3009    2.9701    0.6263 H   0  0
    6.5111   -1.3517    1.5743 H   0  0
    3.6819    2.8142   -0.2106 H   0  0
    3.1225    2.4202    1.4514 H   0  0
    0.7612   -1.0580   -0.0982 H   0  0
    0.5351   -0.1316    1.3935 H   0  0
    1.2246   -1.8208    1.4964 H   0  0
    3.9255    0.2388   -1.5200 H   0  0
    2.9043    1.5966   -2.1075 H   0  0
    2.2012   -0.0422   -1.9224 H   0  0
    0.8134    1.3052    1.9462 H   0  0
   -1.5330    1.9424    0.3960 H   0  0
   -0.6877    3.4766    0.7943 H   0  0
   -2.4933    0.5544    2.1355 H   0  0
   -3.4342    0.4742    4.4308 H   0  0
   -1.4139    4.1527    5.3835 H   0  0
   -0.4606    4.2201    3.0929 H   0  0
  1  2  1  0
  2  3  1  0
  3  8  1  0
  3  4  1  0
  4  5  1  0
  5  6  1  0
  6  7  1  0
  6  9  1  0
  7  8  1  0
  9 10  1  0
 10 11  1  0
 11 12  1  0
 12 13  1  0
 13 14  2  0
 13 15  1  0
 15 19  2  0
 15 16  1  0
 16 17  2  0
 17 23  1  0
 17 18  1  0
 18 19  1  0
 18 20  1  0
 20 21  1  0
 21 22  1  0
 21 26  1  0
 21 27  1  0
 22 23  1  0
 22 25  1  0
 23 24  2  0
 27 28  2  0
 27 29  1  0
 29 30  1  0
 30 31  1  0
 31 36  2  0
 31 32  1  0
 32 33  2  0
 33 34  1  0
 34 35  2  0
 34 37  1  0
 35 36  1  0
  1 38  1  0
  1 39  1  0
  1 40  1  0
  2 41  1  0
  2 42  1  0
  3 43  1  0
  4 44  1  0
  4 45  1  0
  5 46  1  0
  5 47  1  0
  7 48  1  0
  7 49  1  0
  8 50  1  0
  8 51  1  0
  9 52  1  0
  9 53  1  0
 10 54  1  0
 10 55  1  0
 11 56  1  0
 11 57  1  0
 12 58  1  0
 16 59  1  0
 20 60  1  0
 20 61  1  0
 25 62  1  0
 25 63  1  0
 25 64  1  0
 26 65  1  0
 26 66  1  0
 26 67  1  0
 29 68  1  0
 30 69  1  0
 30 70  1  0
 32 71  1  0
 33 72  1  0
 35 73  1  0
 36 74  1  0
M  CHG  1   3   1
M  END
> <Name>
ZINC21876770

> <reference>
BDB50017125

> <quality>
0.762

> <status>
decoy

$$$$
ZINC20912012
  SciTegic06061311253D

 71 74  0  0  0  0            999 V2000
   14.0359   -0.5587    1.5649 C   0  0
   12.7564   -0.2611    0.7806 C   0  0
   11.6055   -1.0190    1.3907 C   0  0
   10.8176   -0.5937    2.3370 N   0  0
    9.9484   -1.5025    2.6095 N   0  0
   10.1522   -2.5383    1.8462 C   0  0
   11.2070   -2.2594    1.0621 O   0  0
    9.3552   -3.8173    1.8471 C   0  0
    8.2414   -3.7009    0.8963 N   0  0
    7.3080   -4.8262    1.0386 C   0  0
    6.2660   -4.7662   -0.0834 C   0  0
    5.6414   -3.4347   -0.0703 N   0  0
    6.5190   -2.2544   -0.0784 C   0  0
    7.5511   -2.4133    1.0493 C   0  0
    4.3005   -3.2996   -0.0567 C   0  0
    3.5919   -4.2839   -0.0552 O   0  0
    3.6817   -1.9256   -0.0434 C   0  0
    1.8741   -2.0767   -0.0270 S   0  0
    1.3070   -0.4085   -0.0126 C   0  0
    2.0634    0.6628   -0.0141 N   0  0
    1.2248    1.7850    0.0000 N   0  0
   -0.0165    1.3631    0.0095 C   0  0
    0.0021   -0.0041    0.0020 N   0  0
   -1.0920   -0.8219    0.0085 N   0  0
   -1.1496    2.1631    0.0195 N   0  0
   -1.0220    3.5583    0.0265 N   0  0
   -2.0821    4.3067    0.0358 C   0  0
   -1.9477    5.7768    0.0431 C   0  0
   -0.7396    6.5065    0.0406 C   0  0
   -1.0333    7.7789    0.0483 N   0  0
   -2.4256    7.9213    0.0561 N   0  0
   -2.9783    6.6913    0.0476 C   0  0
   -4.4518    6.3751    0.0463 C   0  0
   -3.1577    9.1903    0.0660 C   0  0  1  0  0  0
   -2.7810    9.9866    1.3170 C   0  0
   -2.7946    9.9983   -1.1814 C   0  0
    0.6483    5.9194    0.0311 C   0  0
   14.2475   -1.6375    1.5277 H   0  0
   13.9064   -0.2469    2.6118 H   0  0
   14.8764   -0.0058    1.1201 H   0  0
   12.5455    0.8178    0.8186 H   0  0
   12.8859   -0.5728   -0.2663 H   0  0
   10.0043   -4.6542    1.5500 H   0  0
    8.9574   -4.0020    2.8559 H   0  0
    7.8627   -5.7739    0.9732 H   0  0
    6.8012   -4.7632    2.0128 H   0  0
    5.4976   -5.5353    0.0839 H   0  0
    6.7579   -4.9332   -1.0530 H   0  0
    5.9218   -1.3468    0.0938 H   0  0
    7.0377   -2.1856   -1.0460 H   0  0
    8.2831   -1.5941    0.9942 H   0  0
    7.0385   -2.3845    2.0221 H   0  0
    4.0119   -1.3832    0.8548 H   0  0
    3.9945   -1.3726   -0.9414 H   0  0
   -0.8944   -1.8327    0.0016 H   0  0
   -2.0587   -0.4666    0.0196 H   0  0
   -2.0848    1.7315    0.0218 H   0  0
   -3.0808    3.8457    0.0382 H   0  0
   -4.5525    5.7145    0.9201 H   0  0
   -4.5527    5.7229   -0.8337 H   0  0
   -5.1395    7.2336    0.0505 H   0  0
   -4.2392    8.9897    0.0709 H   0  0
   -1.6996   10.1880    1.3129 H   0  0
   -3.0419    9.4066    2.2145 H   0  0
   -3.3303   10.9396    1.3251 H   0  0
   -3.0652    9.4267   -2.0814 H   0  0
   -1.7132   10.1997   -1.1871 H   0  0
   -3.3440   10.9513   -1.1746 H   0  0
    0.6204    5.2594   -0.8485 H   0  0
    0.6289    5.2512    0.9047 H   0  0
    1.4853    6.6331    0.0303 H   0  0
  1  2  1  0
  2  3  1  0
  3  7  1  0
  3  4  2  0
  4  5  1  0
  5  6  2  0
  6  7  1  0
  6  8  1  0
  8  9  1  0
  9 14  1  0
  9 10  1  0
 10 11  1  0
 11 12  1  0
 12 13  1  0
 12 15  1  0
 13 14  1  0
 15 16  2  0
 15 17  1  0
 17 18  1  0
 18 19  1  0
 19 23  1  0
 19 20  2  0
 20 21  1  0
 21 22  2  0
 22 23  1  0
 22 25  1  0
 23 24  1  0
 25 26  1  0
 26 27  2  0
 27 28  1  0
 28 32  2  0
 28 29  1  0
 29 30  2  0
 29 37  1  0
 30 31  1  0
 31 32  1  0
 31 34  1  0
 32 33  1  0
 34 35  1  0
 34 36  1  0
  1 38  1  0
  1 39  1  0
  1 40  1  0
  2 41  1  0
  2 42  1  0
  8 43  1  0
  8 44  1  0
 10 45  1  0
 10 46  1  0
 11 47  1  0
 11 48  1  0
 13 49  1  0
 13 50  1  0
 14 51  1  0
 14 52  1  0
 17 53  1  0
 17 54  1  0
 24 55  1  0
 24 56  1  0
 25 57  1  0
 27 58  1  0
 33 59  1  0
 33 60  1  0
 33 61  1  0
 34 62  1  0
 35 63  1  0
 35 64  1  0
 35 65  1  0
 36 66  1  0
 36 67  1  0
 36 68  1  0
 37 69  1  0
 37 70  1  0
 37 71  1  0
M  END
> <Name>
ZINC20912012

> <reference>
BDB50017125

> <quality>
0.761

> <status>
decoy

$$$$
ZINC05543803
  SciTegic06061311253D

 72 75  0  0  0  0            999 V2000
    2.7194    4.1044   -1.1438 C   0  0
    2.6899    5.6329   -1.0630 C   0  0
    4.0307    6.1302   -1.0426 O   0  0
    4.8121    5.6341    0.0476 C   0  0
    4.8631    4.1056   -0.0219 C   0  0
    3.4925    3.5738   -0.0116 N   0  0
    3.4975    2.1931   -0.0195 C   0  0
    2.2840    1.4616   -0.0119 C   0  0
    2.3545    0.0520   -0.0201 C   0  0
    1.1411   -0.6795   -0.0125 C   0  0
    0.0021   -0.0041    0.0020 N   0  0
   -0.0160    1.3257    0.0093 C   0  0
    1.0854    2.0530    0.0027 N   0  0
   -1.2402    1.9737    0.0186 N   0  0
   -1.2941    3.4377    0.0268 C   0  0
   -1.3196    3.9552   -1.4128 C   0  0
   -2.5288    3.5359   -2.0484 O   0  0
   -2.4812    1.1950    0.0201 C   0  0
   -2.9065    0.9161    1.4631 C   0  0
   -3.2322    2.1478    2.1102 O   0  0
    1.1461   -2.0602   -0.0204 N   0  0
    1.8975   -2.5778   -1.1731 C   0  0
    1.9284   -4.1071   -1.1103 C   0  0
    0.5882   -4.6048   -1.0700 O   0  0
   -0.1723   -4.1213    0.0405 C   0  0
   -0.2244   -2.5921   -0.0106 C   0  0
    3.5531   -0.5394   -0.0351 N   0  0
    4.6545    0.1879   -0.0413 C   0  0
    4.6365    1.5176   -0.0340 N   0  0
    5.8787   -0.4602   -0.0565 N   0  0
    5.9326   -1.9241   -0.0648 C   0  0
    5.9375   -2.4260   -1.5102 C   0  0
    7.1377   -1.9999   -2.1582 O   0  0
    7.1197    0.3185   -0.0641 C   0  0
    7.5654    0.5818    1.3756 C   0  0
    7.9002   -0.6568    2.0047 O   0  0
    1.6913    3.7154   -1.1024 H   0  0
    3.1921    3.7963   -2.0880 H   0  0
    2.1622    6.0369   -1.9395 H   0  0
    2.1699    5.9431   -0.1447 H   0  0
    5.8330    6.0383   -0.0182 H   0  0
    4.3545    5.9425    0.9992 H   0  0
    5.4141    3.7156    0.8466 H   0  0
    5.3693    3.7967   -0.9484 H   0  0
   -0.4079    3.8355    0.5430 H   0  0
   -2.2029    3.7684    0.5509 H   0  0
   -1.2702    5.0541   -1.4085 H   0  0
   -0.4575    3.5516   -1.9640 H   0  0
   -3.3057    3.8993   -1.5540 H   0  0
   -2.3179    0.2418   -0.5040 H   0  0
   -3.2718    1.7638   -0.4912 H   0  0
   -3.7874    0.2573    1.4650 H   0  0
   -2.0815    0.4268    2.0016 H   0  0
   -3.9753    2.5890    1.6273 H   0  0
    2.9262   -2.1892   -1.1468 H   0  0
    1.4069   -2.2590   -2.1046 H   0  0
    2.4393   -4.5010   -2.0013 H   0  0
    2.4658   -4.4277   -0.2056 H   0  0
   -1.1943   -4.5248   -0.0105 H   0  0
    0.3033   -4.4405    0.9796 H   0  0
   -0.7590   -2.2138    0.8732 H   0  0
   -0.7496   -2.2737   -0.9231 H   0  0
    5.0538   -2.3275    0.4596 H   0  0
    6.8488   -2.2603    0.4426 H   0  0
    5.8879   -3.5249   -1.5171 H   0  0
    5.0678   -2.0163   -2.0447 H   0  0
    7.9215   -2.3687   -1.6789 H   0  0
    6.9491    1.2773   -0.5755 H   0  0
    7.9029   -0.2447   -0.5926 H   0  0
    8.4463    1.2406    1.3722 H   0  0
    6.7482    1.0652    1.9310 H   0  0
    8.6364   -1.0926    1.5065 H   0  0
  1  6  1  0
  1  2  1  0
  2  3  1  0
  3  4  1  0
  4  5  1  0
  5  6  1  0
  6  7  1  0
  7 29  2  0
  7  8  1  0
  8 13  2  0
  8  9  1  0
  9 10  2  0
  9 27  1  0
 10 11  1  0
 10 21  1  0
 11 12  2  0
 12 13  1  0
 12 14  1  0
 14 15  1  0
 14 18  1  0
 15 16  1  0
 16 17  1  0
 18 19  1  0
 19 20  1  0
 21 26  1  0
 21 22  1  0
 22 23  1  0
 23 24  1  0
 24 25  1  0
 25 26  1  0
 27 28  2  0
 28 29  1  0
 28 30  1  0
 30 31  1  0
 30 34  1  0
 31 32  1  0
 32 33  1  0
 34 35  1  0
 35 36  1  0
  1 37  1  0
  1 38  1  0
  2 39  1  0
  2 40  1  0
  4 41  1  0
  4 42  1  0
  5 43  1  0
  5 44  1  0
 15 45  1  0
 15 46  1  0
 16 47  1  0
 16 48  1  0
 17 49  1  0
 18 50  1  0
 18 51  1  0
 19 52  1  0
 19 53  1  0
 20 54  1  0
 22 55  1  0
 22 56  1  0
 23 57  1  0
 23 58  1  0
 25 59  1  0
 25 60  1  0
 26 61  1  0
 26 62  1  0
 31 63  1  0
 31 64  1  0
 32 65  1  0
 32 66  1  0
 33 67  1  0
 34 68  1  0
 34 69  1  0
 35 70  1  0
 35 71  1  0
 36 72  1  0
M  END
> <Name>
ZINC05543803

> <reference>
BDB50017125

> <quality>
0.761

> <status>
decoy

$$$$
ZINC09007806
  SciTegic06061311253D

 73 75  0  0  1  0            999 V2000
   -0.2208    3.9122    5.6434 C   0  0
    1.0666    4.2786    4.9023 C   0  0
    2.3968    2.8732    6.3577 C   0  0
    3.3189    3.9850    6.8621 C   0  0
    1.4428    1.9562    4.3299 C   0  0
    1.2818    2.2075    2.8293 C   0  0
    0.6938    0.9617    2.1637 C   0  0
    0.5396    1.2024    0.7269 N   0  0
    1.5507    0.9234   -0.2971 C   0  0  1  0  0  0
    0.9491    1.3306   -1.6222 C   0  0
    1.5467    1.2455   -2.8670 C   0  0
    0.8176    1.6879   -4.0637 C   0  0
    1.0981    2.8337   -4.8439 C   0  0
    0.1825    2.8623   -5.8542 C   0  0
   -0.6545    1.7758   -5.7129 N   0  0
   -0.2791    1.0645   -4.6384 C   0  0
   -0.9373   -0.1969   -4.1418 C   0  0
    0.0987    3.8790   -6.9079 C   0  0
    0.8954    4.7973   -6.9315 O   0  0
   -0.8622    3.7954   -7.8507 O   0  0
   -0.8851    4.8365   -8.8626 C   0  0
    2.2017    3.8320   -4.6058 C   0  0
    2.7996    0.7561   -2.9823 O   0  5
   -0.3352    1.8109   -1.3368 C   0  0
   -1.1367    2.2341   -2.1508 O   0  0
   -0.5520    1.7146    0.1318 C   0  0
   -1.5663    2.0495    0.7089 O   0  0
    2.7955    1.7285   -0.0262 C   0  0
    2.6878    3.0346    0.4178 C   0  0
    3.8231    3.7754    0.6732 C   0  0
    5.0829    3.2082    0.4716 C   0  0
    5.1842    1.8915    0.0179 C   0  0
    4.0408    1.1602   -0.2280 C   0  0
    6.3031    3.9973    0.7376 C   0  0
    7.3977    3.5009    0.5617 O   0  0
    6.2018    5.2673    1.1752 O   0  0
    7.4423    5.9825    1.4157 C   0  0
    2.0311    3.1597    4.9545 N   0  3
    0.0207    3.6847    6.6922 H   0  0
   -0.6653    3.0226    5.1732 H   0  0
   -0.9314    4.7507    5.5988 H   0  0
    0.8304    4.5059    3.8523 H   0  0
    1.5162    5.1675    5.3688 H   0  0
    2.9204    1.9073    6.4118 H   0  0
    1.4872    2.8390    6.9753 H   0  0
    2.7995    4.9533    6.8103 H   0  0
    4.2303    4.0220    6.2473 H   0  0
    3.5959    3.7791    7.9066 H   0  0
    2.1088    1.0956    4.4908 H   0  0
    0.4585    1.7535    4.7771 H   0  0
    0.6060    3.0608    2.6707 H   0  0
    2.2637    2.4301    2.3863 H   0  0
    1.3694    0.1081    2.3215 H   0  0
   -0.2888    0.7381    2.6048 H   0  0
    1.8309   -0.1403   -0.2987 H   0  0
   -1.4434    1.5462   -6.3340 H   0  0
   -1.1691    0.0500   -3.0952 H   0  0
   -0.0974   -0.9061   -4.1033 H   0  0
   -1.8017   -0.5577   -4.7186 H   0  0
    0.1032    4.8213   -9.3452 H   0  0
   -0.9834    5.7904   -8.3236 H   0  0
   -1.6952    4.6990   -9.5939 H   0  0
    3.0933    3.1887   -4.5713 H   0  0
    2.0184    4.1371   -3.5650 H   0  0
    2.2765    4.6694   -5.3151 H   0  0
    1.6946    3.4832    0.5674 H   0  0
    3.7361    4.8106    1.0349 H   0  0
    6.1736    1.4385   -0.1430 H   0  0
    4.1192    0.1228   -0.5854 H   0  0
    7.9986    5.9659    0.4669 H   0  0
    8.0063    5.3870    2.1487 H   0  0
    7.2768    7.0105    1.7703 H   0  0
    2.8800    3.4251    4.4351 H   0  0
  1  2  1  0
  2 38  1  0
  3  4  1  0
  3 38  1  0
  5  6  1  0
  5 38  1  0
  6  7  1  0
  7  8  1  0
  8 26  1  0
  8  9  1  0
  9 10  1  0
  9 28  1  0
 10 11  2  0
 10 24  1  0
 11 12  1  0
 11 23  1  0
 12 16  2  0
 12 13  1  0
 13 14  2  0
 13 22  1  0
 14 15  1  0
 14 18  1  0
 15 16  1  0
 16 17  1  0
 18 19  2  0
 18 20  1  0
 20 21  1  0
 24 25  2  0
 24 26  1  0
 26 27  2  0
 28 33  2  0
 28 29  1  0
 29 30  2  0
 30 31  1  0
 31 32  2  0
 31 34  1  0
 32 33  1  0
 34 35  2  0
 34 36  1  0
 36 37  1  0
  1 39  1  0
  1 40  1  0
  1 41  1  0
  2 42  1  0
  2 43  1  0
  3 44  1  0
  3 45  1  0
  4 46  1  0
  4 47  1  0
  4 48  1  0
  5 49  1  0
  5 50  1  0
  6 51  1  0
  6 52  1  0
  7 53  1  0
  7 54  1  0
  9 55  1  0
 15 56  1  0
 17 57  1  0
 17 58  1  0
 17 59  1  0
 21 60  1  0
 21 61  1  0
 21 62  1  0
 22 63  1  0
 22 64  1  0
 22 65  1  0
 29 66  1  0
 30 67  1  0
 32 68  1  0
 33 69  1  0
 37 70  1  0
 37 71  1  0
 37 72  1  0
 38 73  1  0
M  CHG  2  23  -1  38   1
M  END
> <Name>
ZINC09007806

> <reference>
BDB50017125

> <quality>
0.759

> <status>
decoy

$$$$
ZINC31477031
  SciTegic06061311253D

 48 49  0  0  0  0            999 V2000
   -1.2530   -0.7959    0.3592 C   0  0
    0.0154   -0.0048    0.1683 C   0  0
   -0.0049    1.3924    0.1666 C   0  0
    1.2020    2.0953   -0.0144 C   0  0
    2.3451    1.4487   -0.1818 N   0  0
    2.4059    0.1269   -0.1859 C   0  0
    1.2420   -0.6497   -0.0110 C   0  0
    1.3124   -2.0101   -0.0173 N   0  0
    0.4837   -2.6956   -0.7297 N   0  0
    0.5543   -4.0608   -0.7360 C   0  0
    1.5228   -4.7173    0.0280 C   0  0
    1.5878   -6.0957    0.0171 C   0  0
    0.6959   -6.8286   -0.7488 C   0  0
   -0.2657   -6.1859   -1.5073 C   0  0
   -0.3459   -4.8074   -1.5025 C   0  0
   -1.5575   -4.0029   -2.4505 Cl  0  0
    0.7866   -8.5882   -0.7564 S   0  0
    1.5533   -8.9505   -1.8966 O   0  0
    1.1471   -8.9819    0.5605 O   0  0
   -0.6228   -9.1104   -0.9961 O   0  5
    2.7897   -6.9134    0.9660 Cl  0  0
    3.6234   -0.4993   -0.3640 N   0  0
    4.8523    0.2950   -0.4342 C   0  0
    6.0504   -0.6355   -0.6336 C   0  0
    5.9451   -1.2822   -1.9035 O   0  0
    1.1929    3.4759   -0.0182 N   0  0
    2.4431    4.2162   -0.2057 C   0  0
    2.1566    5.7186   -0.1690 C   0  0
    1.6928    6.0834    1.1325 O   0  0
   -1.2376    2.1001    0.3406 C   0  0
   -2.2154    2.6616    0.4787 N   0  0
   -1.0498   -1.4431    1.2252 H   0  0
   -1.3089   -1.4497   -0.5237 H   0  0
   -2.1550   -0.1801    0.4905 H   0  0
    2.2317   -4.1367    0.6366 H   0  0
   -0.9682   -6.7743   -2.1158 H   0  0
    3.6677   -1.5250   -0.4475 H   0  0
    4.9792    0.8596    0.5013 H   0  0
    4.7883    0.9958   -1.2797 H   0  0
    6.9803   -0.0490   -0.5974 H   0  0
    6.0638   -1.3937    0.1632 H   0  0
    5.9340   -0.6011   -2.6218 H   0  0
    0.3071    3.9854    0.1108 H   0  0
    2.8850    3.9516   -1.1777 H   0  0
    3.1467    3.9579    0.5995 H   0  0
    3.0784    6.2735   -0.3981 H   0  0
    1.3858    5.9643   -0.9143 H   0  0
    2.3859    5.8638    1.8044 H   0  0
  1  2  1  0
  2  7  2  0
  2  3  1  0
  3  4  2  0
  3 30  1  0
  4  5  1  0
  4 26  1  0
  5  6  2  0
  6  7  1  0
  6 22  1  0
  7  8  1  0
  8  9  2  0
  9 10  1  0
 10 15  2  0
 10 11  1  0
 11 12  2  0
 12 13  1  0
 12 21  1  0
 13 14  2  0
 13 17  1  0
 14 15  1  0
 15 16  1  0
 17 18  2  0
 17 19  2  0
 17 20  1  0
 22 23  1  0
 23 24  1  0
 24 25  1  0
 26 27  1  0
 27 28  1  0
 28 29  1  0
 30 31  3  0
  1 32  1  0
  1 33  1  0
  1 34  1  0
 11 35  1  0
 14 36  1  0
 22 37  1  0
 23 38  1  0
 23 39  1  0
 24 40  1  0
 24 41  1  0
 25 42  1  0
 26 43  1  0
 27 44  1  0
 27 45  1  0
 28 46  1  0
 28 47  1  0
 29 48  1  0
M  CHG  1  20  -1
M  END
> <Name>
ZINC31477031

> <reference>
BDB50017125

> <quality>
0.759

> <status>
decoy

$$$$
ZINC28910662
  SciTegic06061311253D

 61 63  0  0  0  0            999 V2000
    4.6756    0.7949    0.5944 C   0  0
    3.4303    1.6714    0.7424 C   0  0
    2.3668    1.1239   -0.0394 O   0  0
    1.1803    1.7876   -0.0184 C   0  0
    1.0447    2.9417    0.7395 C   0  0
   -0.1617    3.6128    0.7661 C   0  0
   -1.2360    3.1386    0.0249 C   0  0
   -1.0997    1.9837   -0.7333 C   0  0
    0.1059    1.3103   -0.7545 C   0  0
    0.2794   -0.1552   -1.7172 S   0  0
    0.8715   -1.1301   -0.8697 O   0  0
   -0.9677   -0.3655   -2.3651 O   0  0
    1.3829    0.1693   -2.9085 N   0  0
    2.8079   -0.0766   -2.6737 C   0  0
    0.9342    0.7024   -4.1972 C   0  0
   -2.4587    3.8226    0.0465 N   0  0
   -3.6157    3.1378   -0.0479 C   0  0
   -3.6037    1.9249   -0.0550 O   0  0
   -4.9242    3.8790   -0.1444 C   0  0
   -6.2842    2.6900   -0.2579 S   0  0
   -7.6512    3.7972   -0.3566 C   0  0
   -7.5960    5.1088   -0.3440 N   0  0
   -8.7817    5.5966   -0.4326 N   0  0
   -9.6570    4.6342   -0.5063 C   0  0
   -8.9681    3.4535   -0.4666 N   0  0
   -9.5272    2.1007   -0.5260 C   0  0
   -9.8385    1.6148    0.8910 C   0  0
  -10.4136    0.2232    0.8298 C   0  0
  -10.5601   -0.3259   -0.2417 O   0  0
  -10.7652   -0.4112    1.9657 N   0  0
  -11.1512    4.7929   -0.6209 C   0  0  2  0  0  0
  -11.6957    6.2025   -0.8604 C   0  0
  -11.8712    5.5358    0.5063 C   0  0
    4.9782    0.7614   -0.4626 H   0  0
    4.4517   -0.2239    0.9435 H   0  0
    5.4947    1.2158    1.1960 H   0  0
    3.1283    1.7041    1.7996 H   0  0
    3.6541    2.6903    0.3933 H   0  0
    1.8985    3.3222    1.3194 H   0  0
   -0.2718    4.5228    1.3742 H   0  0
   -1.9517    1.6051   -1.3170 H   0  0
    2.8602   -1.1368   -2.3852 H   0  0
    3.0420    0.5047   -1.7696 H   0  0
    3.4672    0.1676   -3.5197 H   0  0
    0.3749    1.6135   -3.9382 H   0  0
    0.1930   -0.0279   -4.5539 H   0  0
    1.7353    0.8876   -4.9279 H   0  0
   -2.4733    4.8487    0.1345 H   0  0
   -5.0585    4.5044    0.7505 H   0  0
   -4.9203    4.5170   -1.0405 H   0  0
  -10.4525    2.1120   -1.1207 H   0  0
   -8.7989    1.4219   -0.9938 H   0  0
  -10.5677    2.2918    1.3601 H   0  0
   -8.9135    1.6028    1.4862 H   0  0
  -10.6408    0.0551    2.8757 H   0  0
  -11.1583   -1.3623    1.9239 H   0  0
  -11.2750    3.8169   -1.1130 H   0  0
  -12.6296    6.1813   -1.4413 H   0  0
  -10.8923    6.9536   -0.8417 H   0  0
  -11.1605    5.9370    1.2439 H   0  0
  -12.8971    5.1633    0.6437 H   0  0
  1  2  1  0
  2  3  1  0
  3  4  1  0
  4  9  2  0
  4  5  1  0
  5  6  2  0
  6  7  1  0
  7  8  2  0
  7 16  1  0
  8  9  1  0
  9 10  1  0
 10 11  2  0
 10 12  2  0
 10 13  1  0
 13 14  1  0
 13 15  1  0
 16 17  1  0
 17 18  2  0
 17 19  1  0
 19 20  1  0
 20 21  1  0
 21 25  1  0
 21 22  2  0
 22 23  1  0
 23 24  2  0
 24 25  1  0
 24 31  1  0
 25 26  1  0
 26 27  1  0
 27 28  1  0
 28 29  2  0
 28 30  1  0
 31 33  1  0
 31 32  1  0
 32 33  1  0
  1 34  1  0
  1 35  1  0
  1 36  1  0
  2 37  1  0
  2 38  1  0
  5 39  1  0
  6 40  1  0
  8 41  1  0
 14 42  1  0
 14 43  1  0
 14 44  1  0
 15 45  1  0
 15 46  1  0
 15 47  1  0
 16 48  1  0
 19 49  1  0
 19 50  1  0
 26 51  1  0
 26 52  1  0
 27 53  1  0
 27 54  1  0
 30 55  1  0
 30 56  1  0
 31 57  1  0
 32 58  1  0
 32 59  1  0
 33 60  1  0
 33 61  1  0
M  END
> <Name>
ZINC28910662

> <reference>
BDB50017125

> <quality>
0.759

> <status>
decoy

$$$$
ZINC24956216
  SciTegic06061311253D

 70 72  0  0  1  0            999 V2000
   -6.8400    2.5553   -0.7875 C   0  0
   -5.9649    1.6258   -1.6309 C   0  0
   -4.8526    1.0414   -0.7579 C   0  0
   -3.9775    0.1119   -1.6013 C   0  0
   -2.9124   -0.4476   -0.7654 N   0  0
   -1.7113    0.2152   -0.6530 C   0  0
   -0.7211   -0.3182    0.1266 C   0  0
   -0.9621   -1.5279    0.8023 C   0  0
   -0.0967   -2.0201    1.5069 O   0  0
   -2.1552   -2.1394    0.6670 N   0  0
   -3.1160   -1.6035   -0.1072 C   0  0
   -4.1853   -2.1728   -0.2143 O   0  0
    0.5239    0.3401    0.2554 N   0  0
    1.6117   -0.4780   -0.2972 C   0  0
    1.4838   -0.5347   -1.8208 C   0  0
    0.7902    0.6933    1.6562 C   0  0
    1.9918    1.6001    1.7259 C   0  0
    2.5695    1.9206    0.7088 O   0  0
    2.4246    2.0549    2.9186 N   0  0
    3.5011    2.9274    2.9790 C   0  0
    3.6053    4.1431    2.3178 C   0  0
    4.9133    4.6954    2.6912 C   0  0
    5.4844    3.8068    3.5205 C   0  0
    4.6374    2.7461    3.7003 N   0  0
    4.9176    1.5829    4.5457 C   0  0
    5.4857    0.4522    3.6855 C   0  0  2  0  0  0
    5.6762   -0.8153    4.5459 C   0  0
    7.0185   -1.3808    4.0069 C   0  0
    7.7761   -0.0713    3.6724 C   0  0
    6.7711    0.8274    3.1769 O   0  0
    6.8417    3.9564    4.1579 C   0  0
    5.5012    6.0049    2.2324 C   0  0
    2.6352    4.7373    1.4480 C   0  0
    1.8657    5.2086    0.7579 N   0  0
   -1.5066    1.4004   -1.3217 N   0  0
   -6.2249    3.3725   -0.3828 H   0  0
   -7.2862    1.9876    0.0423 H   0  0
   -7.6400    2.9758   -1.4146 H   0  0
   -6.5807    0.8088   -2.0349 H   0  0
   -5.5187    2.1935   -2.4607 H   0  0
   -4.2361    1.8579   -0.3539 H   0  0
   -5.2970    0.4723    0.0720 H   0  0
   -3.5313    0.6796   -2.4312 H   0  0
   -4.5933   -0.7052   -2.0052 H   0  0
   -2.3332   -3.0255    1.1610 H   0  0
    2.5800   -0.0313   -0.0275 H   0  0
    1.5507   -1.4967    0.1133 H   0  0
    1.5457    0.4832   -2.2331 H   0  0
    0.5159   -0.9813   -2.0922 H   0  0
    2.2981   -1.1472   -2.2353 H   0  0
    0.9878   -0.2211    2.2349 H   0  0
   -0.0844    1.2114    2.0765 H   0  0
    1.9559    1.7545    3.7852 H   0  0
    3.9877    1.2451    5.0265 H   0  0
    5.6505    1.8589    5.3182 H   0  0
    4.7847    0.2581    2.8604 H   0  0
    4.8603   -1.5298    4.3621 H   0  0
    5.7749   -0.5456    5.6077 H   0  0
    7.5451   -1.9385    4.7954 H   0  0
    6.8495   -1.9705    3.0938 H   0  0
    8.5301   -0.2610    2.8942 H   0  0
    8.2350    0.3401    4.5835 H   0  0
    6.7678    4.9275    4.6693 H   0  0
    7.5032    4.1164    3.2937 H   0  0
    7.1593    3.1323    4.8136 H   0  0
    4.7093    6.7178    2.5056 H   0  0
    5.4405    5.9104    1.1381 H   0  0
    6.4998    6.2693    2.6103 H   0  0
   -2.2566    1.7924   -1.9089 H   0  0
   -0.6068    1.8943   -1.2358 H   0  0
  1  2  1  0
  2  3  1  0
  3  4  1  0
  4  5  1  0
  5 11  1  0
  5  6  1  0
  6  7  2  0
  6 35  1  0
  7  8  1  0
  7 13  1  0
  8  9  2  0
  8 10  1  0
 10 11  1  0
 11 12  2  0
 13 14  1  0
 13 16  1  0
 14 15  1  0
 16 17  1  0
 17 18  2  0
 17 19  1  0
 19 20  1  0
 20 24  1  0
 20 21  2  0
 21 22  1  0
 21 33  1  0
 22 23  2  0
 22 32  1  0
 23 24  1  0
 23 31  1  0
 24 25  1  0
 25 26  1  0
 26 30  1  0
 26 27  1  0
 27 28  1  0
 28 29  1  0
 29 30  1  0
 33 34  3  0
  1 36  1  0
  1 37  1  0
  1 38  1  0
  2 39  1  0
  2 40  1  0
  3 41  1  0
  3 42  1  0
  4 43  1  0
  4 44  1  0
 10 45  1  0
 14 46  1  0
 14 47  1  0
 15 48  1  0
 15 49  1  0
 15 50  1  0
 16 51  1  0
 16 52  1  0
 19 53  1  0
 25 54  1  0
 25 55  1  0
 26 56  1  0
 27 57  1  0
 27 58  1  0
 28 59  1  0
 28 60  1  0
 29 61  1  0
 29 62  1  0
 31 63  1  0
 31 64  1  0
 31 65  1  0
 32 66  1  0
 32 67  1  0
 32 68  1  0
 35 69  1  0
 35 70  1  0
M  END
> <Name>
ZINC24956216

> <reference>
BDB50017125

> <quality>
0.758

> <status>
decoy

$$$$
ZINC12338906
  SciTegic06061311253D

 65 67  0  0  1  0            999 V2000
   -4.5807    3.2990   -0.3628 C   0  0
   -3.2058    2.7304   -0.7200 C   0  0
   -3.2212    1.3106   -0.5595 O   0  0
   -2.0689    0.6454   -0.8384 C   0  0
   -2.0142   -0.7343   -0.7037 C   0  0
   -0.8450   -1.4124   -0.9923 C   0  0
    0.2732   -0.7172   -1.4164 C   0  0
    0.2224    0.6644   -1.5519 C   0  0
   -0.9498    1.3451   -1.2627 C   0  0
    1.3214    1.3482   -1.9678 O   0  0
    1.1970    2.7670   -2.0846 C   0  0
    2.5253    3.3578   -2.5616 C   0  0
    1.4149   -1.3819   -1.6983 F   0  0
   -0.7884   -2.9112   -0.8452 C   0  0  2  0  0  0
   -0.9466   -3.5551   -2.1985 C   0  0
   -1.8717   -4.3114   -2.4058 O   0  0
   -0.0601   -3.2903   -3.1785 N   0  5
   -0.2339   -3.9979   -4.6656 S   0  0
    0.8248   -3.5059   -5.4758 O   0  0
   -0.4346   -5.3854   -4.4342 O   0  0
   -1.7301   -3.3823   -5.3637 C   0  0
   -2.9215   -4.0484   -5.1411 C   0  0
   -4.0987   -3.5656   -5.6822 C   0  0
   -4.0866   -2.4221   -6.4570 C   0  0
   -2.8909   -1.7539   -6.6873 C   0  0
   -1.7108   -2.2386   -6.1372 C   0  0
   -2.8749   -0.5975   -7.4705 N   0  0
   -1.8699   -3.3565    0.0369 N   0  0
   -1.6903   -3.3479    1.4177 C   0  0
   -0.4815   -2.9155    1.9580 C   0  0
   -0.2975   -2.9045    3.3216 C   0  0
   -1.3246   -3.3278    4.1684 C   0  0
   -2.5408   -3.7628    3.6247 C   0  0
   -2.7191   -3.7651    2.2524 C   0  0
   -3.5428   -4.1759    4.4418 O   0  5
   -1.1297   -3.3165    5.6320 C   0  0
    0.0674   -2.8877    6.1647 N   0  0
   -2.1443   -3.7308    6.3791 N   0  3
   -4.8209    3.0514    0.6817 H   0  0
   -5.3423    2.8639   -1.0266 H   0  0
   -4.5695    4.3920   -0.4861 H   0  0
   -2.9665    2.9782   -1.7647 H   0  0
   -2.4441    3.1655   -0.0562 H   0  0
   -2.9023   -1.2891   -0.3669 H   0  0
   -0.9921    2.4391   -1.3697 H   0  0
    0.4073    3.0074   -2.8116 H   0  0
    0.9367    3.1953   -1.1054 H   0  0
    2.7866    2.9315   -3.5414 H   0  0
    3.3161    3.1183   -1.8355 H   0  0
    2.4303    4.4500   -2.6517 H   0  0
    0.1805   -3.2008   -0.4124 H   0  0
   -2.9326   -4.9644   -4.5322 H   0  0
   -5.0460   -4.0927   -5.4955 H   0  0
   -5.0228   -2.0411   -6.8911 H   0  0
   -0.7621   -1.7119   -6.3176 H   0  0
   -3.7509   -0.2401   -7.8776 H   0  0
   -1.9879   -0.1024   -7.6409 H   0  0
   -2.7632   -3.6760   -0.3643 H   0  0
    0.3284   -2.5818    1.2927 H   0  0
    0.6584   -2.5624    3.7448 H   0  0
   -3.6756   -4.0973    1.8226 H   0  0
    0.8258   -2.5752    5.5417 H   0  0
    0.2034   -2.8798    7.1857 H   0  0
   -3.0347   -4.0492    5.9707 H   0  0
   -2.0304   -3.7314    7.4028 H   0  0
  1  2  1  0
  2  3  1  0
  3  4  1  0
  4  9  2  0
  4  5  1  0
  5  6  2  0
  6  7  1  0
  6 14  1  0
  7  8  2  0
  7 13  1  0
  8  9  1  0
  8 10  1  0
 10 11  1  0
 11 12  1  0
 14 15  1  0
 14 28  1  0
 15 16  2  0
 15 17  1  0
 17 18  1  0
 18 19  2  0
 18 20  2  0
 18 21  1  0
 21 26  2  0
 21 22  1  0
 22 23  2  0
 23 24  1  0
 24 25  2  0
 25 26  1  0
 25 27  1  0
 28 29  1  0
 29 34  2  0
 29 30  1  0
 30 31  2  0
 31 32  1  0
 32 33  2  0
 32 36  1  0
 33 34  1  0
 33 35  1  0
 36 37  1  0
 36 38  2  0
  1 39  1  0
  1 40  1  0
  1 41  1  0
  2 42  1  0
  2 43  1  0
  5 44  1  0
  9 45  1  0
 11 46  1  0
 11 47  1  0
 12 48  1  0
 12 49  1  0
 12 50  1  0
 14 51  1  0
 22 52  1  0
 23 53  1  0
 24 54  1  0
 26 55  1  0
 27 56  1  0
 27 57  1  0
 28 58  1  0
 30 59  1  0
 31 60  1  0
 34 61  1  0
 37 62  1  0
 37 63  1  0
 38 64  1  0
 38 65  1  0
M  CHG  3  17  -1  35  -1  38   1
M  END
> <Name>
ZINC12338906

> <reference>
BDB50017125

> <quality>
0.757

> <status>
decoy

$$$$
ZINC31961185
  SciTegic06061311253D

 83 86  0  0  1  0            999 V2000
    6.4288    3.5617   13.1839 C   0  0
    6.1246    3.0724   14.6025 C   0  0
    6.4879    1.5889   14.7112 C   0  0  2  0  0  0
    5.7037    0.7984   13.6614 C   0  0
    6.0299    1.3038   12.3217 N   0  3
    5.6463    2.7140   12.1783 C   0  0
    5.4023    0.4790   11.2807 C   0  0
    5.5525    1.1694    9.9236 C   0  0
    4.8988    0.3104    8.8393 C   0  0
    5.0491    1.0007    7.4821 C   0  0
    4.3954    0.1417    6.3978 C   0  0
    4.5456    0.8321    5.0407 C   0  0
    3.9197    0.0096    4.0025 N   0  0
    4.6968   -1.0110    3.2894 C   0  0
    4.4029   -0.9176    1.8133 C   0  0
    3.2227   -0.4729    1.4010 C   0  0
    2.2094   -0.0520    2.3916 C   0  0
    2.6005    0.1793    3.6813 C   0  0
    0.8056    0.1092    1.9987 C   0  0
    0.0121    0.6159    2.7701 O   0  0
    0.3943   -0.3037    0.7835 N   0  0
   -0.9923   -0.2590    0.2848 C   0  0
   -1.0580   -1.3529   -0.8101 C   0  0
    0.3425   -1.2226   -1.4651 C   0  0
    1.2527   -0.8747   -0.2684 C   0  0  2  0  0  0
    1.9300   -2.1212    0.2398 C   0  0
    1.7319   -2.4992    1.3750 O   0  0
    2.7560   -2.8161   -0.5673 N   0  0
    6.1365    1.0843   16.0870 C   0  0
    5.2606    0.2567   16.2240 O   0  0
    6.7957    1.5526   17.1653 N   0  0
    7.9329    2.4904   17.1367 C   0  0
    7.9136    3.1760   18.5281 C   0  0
    7.4927    1.9986   19.4469 C   0  0
    6.5039    1.2080   18.5644 C   0  0  2  0  0  0
    6.6956   -0.2713   18.7786 C   0  0
    7.0428   -0.9776   17.8559 O   0  0
    6.4812   -0.8093   19.9956 N   0  0
    6.1301    4.6160   13.0880 H   0  0
    7.5065    3.4648   12.9859 H   0  0
    6.7192    3.6497   15.3258 H   0  0
    5.0536    3.2042   14.8161 H   0  0
    7.5668    1.4600   14.5400 H   0  0
    5.9736   -0.2660   13.7268 H   0  0
    4.6251    0.9147   13.8436 H   0  0
    7.0512    1.2425   12.2029 H   0  0
    5.8732    3.0527   11.1567 H   0  0
    4.5682    2.8212   12.3688 H   0  0
    5.8927   -0.5051   11.2471 H   0  0
    4.3341    0.3489   11.5088 H   0  0
    5.0620    2.1534    9.9564 H   0  0
    6.6202    1.2994    9.6932 H   0  0
    5.3891   -0.6737    8.8058 H   0  0
    3.8306    0.1804    9.0674 H   0  0
    4.5587    1.9848    7.5148 H   0  0
    6.1168    1.1306    7.2518 H   0  0
    4.8857   -0.8424    6.3642 H   0  0
    3.3272    0.0116    6.6259 H   0  0
    5.6133    0.9621    4.8104 H   0  0
    4.0551    1.8161    5.0735 H   0  0
    5.7701   -0.8421    3.4610 H   0  0
    4.4176   -2.0097    3.6562 H   0  0
    5.1656   -1.2176    1.0796 H   0  0
    2.9990   -0.4176    0.3254 H   0  0
    1.8718    0.4944    4.4427 H   0  0
   -1.6945   -0.4980    1.0971 H   0  0
   -1.2055    0.7262   -0.1556 H   0  0
   -1.8457   -1.1183   -1.5412 H   0  0
   -1.1759   -2.3465   -0.3531 H   0  0
    0.6466   -2.1825   -1.9081 H   0  0
    0.3467   -0.4018   -2.1974 H   0  0
    2.0322   -0.1579   -0.5659 H   0  0
    2.9243   -2.4952   -1.5314 H   0  0
    3.2190   -3.6681   -0.2199 H   0  0
    7.7866    3.2410   16.3460 H   0  0
    8.8753    1.9392   17.0023 H   0  0
    8.9203    3.5296   18.7956 H   0  0
    7.1549    3.9721   18.5542 H   0  0
    6.9820    2.3782   20.3442 H   0  0
    8.3657    1.3759   19.6921 H   0  0
    5.4643    1.4607   18.8201 H   0  0
    6.1863   -0.2094   20.7792 H   0  0
    6.6122   -1.8204   20.1420 H   0  0
  1  6  1  0
  1  2  1  0
  2  3  1  0
  3  4  1  0
  3 29  1  0
  4  5  1  0
  5  6  1  0
  5  7  1  0
  7  8  1  0
  8  9  1  0
  9 10  1  0
 10 11  1  0
 11 12  1  0
 12 13  1  0
 13 18  1  0
 13 14  1  0
 14 15  1  0
 15 16  2  0
 16 17  1  0
 17 18  2  0
 17 19  1  0
 19 20  2  0
 19 21  1  0
 21 25  1  0
 21 22  1  0
 22 23  1  0
 23 24  1  0
 24 25  1  0
 25 26  1  0
 26 27  2  0
 26 28  1  0
 29 30  2  0
 29 31  1  0
 31 35  1  0
 31 32  1  0
 32 33  1  0
 33 34  1  0
 34 35  1  0
 35 36  1  0
 36 37  2  0
 36 38  1  0
  1 39  1  0
  1 40  1  0
  2 41  1  0
  2 42  1  0
  3 43  1  0
  4 44  1  0
  4 45  1  0
  5 46  1  0
  6 47  1  0
  6 48  1  0
  7 49  1  0
  7 50  1  0
  8 51  1  0
  8 52  1  0
  9 53  1  0
  9 54  1  0
 10 55  1  0
 10 56  1  0
 11 57  1  0
 11 58  1  0
 12 59  1  0
 12 60  1  0
 14 61  1  0
 14 62  1  0
 15 63  1  0
 16 64  1  0
 18 65  1  0
 22 66  1  0
 22 67  1  0
 23 68  1  0
 23 69  1  0
 24 70  1  0
 24 71  1  0
 25 72  1  0
 28 73  1  0
 28 74  1  0
 32 75  1  0
 32 76  1  0
 33 77  1  0
 33 78  1  0
 34 79  1  0
 34 80  1  0
 35 81  1  0
 38 82  1  0
 38 83  1  0
M  CHG  1   5   1
M  END
> <Name>
ZINC31961185

> <reference>
BDB50017125

> <quality>
0.755

> <status>
decoy

$$$$
ZINC13600023
  SciTegic06061311253D

 48 50  0  0  0  0            999 V2000
   -5.3505   -2.1336    1.4303 C   0  0
   -4.0102   -1.6413    1.3727 O   0  0
   -3.8243   -0.4224    0.7994 C   0  0
   -4.9109    0.2833    0.3038 C   0  0
   -4.7253    1.5226   -0.2800 C   0  0
   -3.4541    2.0660   -0.3657 C   0  0
   -2.3606    1.3576    0.1261 C   0  0
   -2.5492    0.1143    0.7110 C   0  0
   -1.0727    1.9026    0.0354 N   0  0
    0.0037    1.0915    0.0326 C   0  0
   -0.1444   -0.1151    0.0054 O   0  0
    1.2442    1.6179    0.0543 N   0  0
    2.3597    0.7778    0.1648 C   0  0
    2.2312   -0.4717    0.7503 C   0  0
    3.3418   -1.3062    0.8530 C   0  0
    4.5794   -0.8763    0.3768 C   0  0
    4.7022    0.3718   -0.1997 C   0  0
    3.5983    1.1996   -0.3080 C   0  0
    3.7239    2.4201   -0.8736 F   0  0
    3.2090   -2.6470    1.4732 C   0  0
    4.3421   -3.4412    1.6771 C   0  0
    4.1665   -4.6844    2.2592 C   0  0
    2.8721   -5.0680    2.6060 C   0  0
    1.8568   -4.2507    2.3758 N   0  0
    2.0163   -3.0948    1.8412 N   0  0
    2.6532   -6.2781    3.1795 O   0  0
    1.3016   -6.6050    3.5086 C   0  0
   -3.2733    3.2887   -0.9347 O   0  0
   -4.4396    3.9584   -1.4176 C   0  0
   -5.7163   -2.1566    0.3932 H   0  0
   -5.9341   -1.3784    1.9772 H   0  0
   -5.4204   -3.1227    1.9066 H   0  0
   -5.9220   -0.1440    0.3755 H   0  0
   -5.5880    2.0777   -0.6769 H   0  0
   -1.6878   -0.4454    1.1044 H   0  0
   -0.9487    2.9231   -0.0291 H   0  0
    1.3720    2.6379   -0.0104 H   0  0
    1.2548   -0.8036    1.1329 H   0  0
    5.4586   -1.5321    0.4605 H   0  0
    5.6799    0.7094   -0.5740 H   0  0
    5.3419   -3.0886    1.3838 H   0  0
    5.0229   -5.3500    2.4427 H   0  0
    0.7294   -6.5345    2.5718 H   0  0
    0.9463   -5.8108    4.1817 H   0  0
    1.2045   -7.5994    3.9687 H   0  0
   -5.1210    4.0507   -0.5590 H   0  0
   -4.9061    3.2799   -2.1470 H   0  0
   -4.2138    4.9386   -1.8628 H   0  0
  1  2  1  0
  2  3  1  0
  3  8  2  0
  3  4  1  0
  4  5  2  0
  5  6  1  0
  6  7  2  0
  6 28  1  0
  7  8  1  0
  7  9  1  0
  9 10  1  0
 10 11  2  0
 10 12  1  0
 12 13  1  0
 13 18  2  0
 13 14  1  0
 14 15  2  0
 15 16  1  0
 15 20  1  0
 16 17  2  0
 17 18  1  0
 18 19  1  0
 20 25  2  0
 20 21  1  0
 21 22  2  0
 22 23  1  0
 23 24  2  0
 23 26  1  0
 24 25  1  0
 26 27  1  0
 28 29  1  0
  1 30  1  0
  1 31  1  0
  1 32  1  0
  4 33  1  0
  5 34  1  0
  8 35  1  0
  9 36  1  0
 12 37  1  0
 14 38  1  0
 16 39  1  0
 17 40  1  0
 21 41  1  0
 22 42  1  0
 27 43  1  0
 27 44  1  0
 27 45  1  0
 29 46  1  0
 29 47  1  0
 29 48  1  0
M  END
> <Name>
ZINC13600023

> <reference>
BDB50048512

> <quality>
0.830

> <status>
decoy

$$$$
ZINC28176772
  SciTegic06061311253D

 32 33  0  0  0  0            999 V2000
   -9.5726    0.9114    0.4166 C   0  0
   -9.4425   -0.3342    1.0034 C   0  0
   -8.2569   -1.0343    0.8858 C   0  0
   -7.1952   -0.4851    0.1764 C   0  0
   -7.3282    0.7676   -0.4065 C   0  0
   -8.5182    1.4599   -0.2895 C   0  0
   -8.6620    2.7934   -0.9154 N   0  0
   -9.7088    3.4068   -0.8082 O   0  0
   -7.7335    3.2775   -1.5377 O   0  0
   -5.9927   -1.1912    0.0551 N   0  0
   -4.8199   -0.5273    0.0406 C   0  0
   -4.8094    0.6855    0.0507 O   0  0
   -3.5216   -1.2918    0.0118 C   0  0
   -2.4100   -0.3577    0.0006 O   0  0
   -1.1681   -0.8838   -0.0252 C   0  0
   -1.0192   -2.0908   -0.0380 O   0  0
    0.0011   -0.0014   -0.0377 C   0  0
    1.3224   -0.3984   -0.0633 C   0  0
    2.1003    0.7634   -0.0665 C   0  0
    1.2601    1.8267   -0.0434 C   0  0
   -0.0181    1.3753   -0.0257 N   0  0
    3.9896    0.8379   -0.0977 Br  0  0
   -8.0939   -2.5977    1.6225 Cl  0  0
  -10.5172    1.4669    0.5119 H   0  0
  -10.2835   -0.7680    1.5642 H   0  0
   -6.4869    1.2088   -0.9611 H   0  0
   -6.0041   -2.2182   -0.0231 H   0  0
   -3.4530   -1.9319    0.9037 H   0  0
   -3.4831   -1.9173   -0.8922 H   0  0
    1.6937   -1.4337   -0.0784 H   0  0
    1.5655    2.8834   -0.0396 H   0  0
   -0.8629    1.9642   -0.0065 H   0  0
  1  6  2  0
  1  2  1  0
  2  3  2  0
  3  4  1  0
  3 23  1  0
  4  5  2  0
  4 10  1  0
  5  6  1  0
  6  7  1  0
  7  8  2  0
  7  9  2  0
 10 11  1  0
 11 12  2  0
 11 13  1  0
 13 14  1  0
 14 15  1  0
 15 16  2  0
 15 17  1  0
 17 21  1  0
 17 18  2  0
 18 19  1  0
 19 20  2  0
 19 22  1  0
 20 21  1  0
  1 24  1  0
  2 25  1  0
  5 26  1  0
 10 27  1  0
 13 28  1  0
 13 29  1  0
 18 30  1  0
 20 31  1  0
 21 32  1  0
M  END
> <Name>
ZINC28176772

> <reference>
BDB50048512

> <quality>
0.811

> <status>
decoy

$$$$
ZINC09773598
  SciTegic06061311253D

 40 41  0  0  1  0            999 V2000
   -1.0198    8.5382    0.9172 C   0  0
   -1.1558    7.7753   -0.4019 C   0  0  2  0  0  0
   -2.4827    8.1022   -1.0370 C   0  0
   -3.5709    7.2757   -0.8281 C   0  0
   -4.7881    7.5740   -1.4101 C   0  0
   -4.9192    8.7016   -2.2035 C   0  0
   -3.8305    9.5300   -2.4130 C   0  0
   -2.6129    9.2333   -1.8248 C   0  0
   -1.5507   10.0438   -2.0242 F   0  0
   -6.1095    8.9929   -2.7724 F   0  0
   -1.0797    6.3353   -0.1433 N   0  0
    0.1177    5.7487    0.0575 C   0  0
    0.1895    4.3902    0.3015 C   0  5
    1.4834    3.6868    0.3623 C   0  0
    2.5291    4.2870    0.1991 O   0  0
    1.4768    2.3597    0.6042 N   0  0
    0.3323    1.6863    0.7863 C   0  0
    0.4211    0.0034    1.0875 S   0  0
   -0.8785    2.2596    0.7397 N   0  0
   -1.0246    3.5812    0.5119 C   0  0
   -2.1289    4.0907    0.4765 O   0  0
    1.3777    6.5744    0.0159 C   0  0  1  0  0  0
    1.8100    6.7593   -1.4159 C   0  0
    0.9990    7.0675   -2.2569 O   0  0
    3.0960    6.5815   -1.7570 O   0  0
    3.4406    6.7764   -3.1540 C   0  0
    1.1353    7.8246    0.5949 F   0  0
   -1.8331    8.2447    1.5972 H   0  0
   -1.0765    9.6196    0.7240 H   0  0
   -0.0514    8.3000    1.3813 H   0  0
   -0.3420    8.0694   -1.0810 H   0  0
   -3.4678    6.3799   -0.1981 H   0  0
   -5.6533    6.9156   -1.2432 H   0  0
   -3.9326   10.4235   -3.0464 H   0  0
    2.3719    1.8522    0.6500 H   0  0
   -1.7165    1.6777    0.8811 H   0  0
    2.1724    6.0591    0.5753 H   0  0
    3.1331    7.8013   -3.4090 H   0  0
    2.8106    6.0814   -3.7285 H   0  0
    4.5100    6.6129   -3.3532 H   0  0
  1  2  1  0
  2  3  1  0
  2 11  1  0
  3  8  2  0
  3  4  1  0
  4  5  2  0
  5  6  1  0
  6  7  2  0
  6 10  1  0
  7  8  1  0
  8  9  1  0
 11 12  2  0
 12 13  1  0
 12 22  1  0
 13 20  1  0
 13 14  1  0
 14 15  2  0
 14 16  1  0
 16 17  1  0
 17 18  2  0
 17 19  1  0
 19 20  1  0
 20 21  2  0
 22 23  1  0
 22 27  1  0
 23 24  2  0
 23 25  1  0
 25 26  1  0
  1 28  1  0
  1 29  1  0
  1 30  1  0
  2 31  1  0
  4 32  1  0
  5 33  1  0
  7 34  1  0
 16 35  1  0
 19 36  1  0
 22 37  1  0
 26 38  1  0
 26 39  1  0
 26 40  1  0
M  CHG  1  13  -1
M  END
> <Name>
ZINC09773598

> <reference>
BDB50048512

> <quality>
0.803

> <status>
decoy

$$$$
ZINC17169076
  SciTegic06061311253D

 45 47  0  0  0  0            999 V2000
   -7.3652    6.3206   -2.9866 C   0  0
   -6.2696    5.8871   -3.9261 C   0  0
   -6.4133    6.0684   -5.2864 C   0  0
   -5.4107    5.6662   -6.1506 C   0  0
   -4.2558    5.0848   -5.6575 C   0  0
   -4.0975    4.9022   -4.2995 C   0  0
   -5.1053    5.3058   -3.4219 C   0  0
   -4.9426    5.1128   -1.9652 C   0  0
   -5.7692    5.5633   -1.1963 O   0  0
   -3.8777    4.4372   -1.4898 N   0  0
   -3.7164    4.2459   -0.0463 C   0  0
   -2.4551    3.4651    0.2192 C   0  0
   -2.4846    2.0797    0.2703 C   0  0
   -1.3011    1.4034    0.5228 C   0  0
   -0.1370    2.1269    0.7021 C   0  0
   -0.1454    3.4440    0.6412 N   0  0
   -1.2533    4.1205    0.4085 C   0  0
   -2.9850    4.5761   -6.7669 S   0  0
   -3.1404    5.3533   -7.9464 O   0  0
   -1.7764    4.5590   -6.0197 O   0  0
   -3.3028    3.0066   -7.1890 N   0  5
   -4.5000    2.6854   -7.8363 C   0  0
   -5.0561    3.5703   -8.7501 C   0  0
   -6.2370    3.2485   -9.3909 C   0  0
   -6.8707    2.0505   -9.1170 C   0  0
   -6.3233    1.1677   -8.2041 C   0  0
   -5.1394    1.4812   -7.5620 C   0  0
   -4.6050    0.6193   -6.6694 F   0  0
   -6.8810    7.0180   -2.2872 H   0  0
   -7.6247    5.4169   -2.4157 H   0  0
   -8.2358    6.7655   -3.4908 H   0  0
   -7.3270    6.5337   -5.6845 H   0  0
   -5.5321    5.8092   -7.2345 H   0  0
   -3.1791    4.4396   -3.9089 H   0  0
   -3.1773    4.0554   -2.1413 H   0  0
   -4.5800    3.6918    0.3500 H   0  0
   -3.6512    5.2261    0.4486 H   0  0
   -3.4247    1.5304    0.1142 H   0  0
   -1.2885    0.3049    0.5797 H   0  0
    0.8073    1.5977    0.8979 H   0  0
   -1.2204    5.2191    0.3646 H   0  0
   -4.5569    4.5269   -8.9638 H   0  0
   -6.6738    3.9465  -10.1202 H   0  0
   -7.8126    1.7990   -9.6265 H   0  0
   -6.8300    0.2154   -7.9886 H   0  0
  1  2  1  0
  2  7  2  0
  2  3  1  0
  3  4  2  0
  4  5  1  0
  5  6  2  0
  5 18  1  0
  6  7  1  0
  7  8  1  0
  8  9  2  0
  8 10  1  0
 10 11  1  0
 11 12  1  0
 12 17  2  0
 12 13  1  0
 13 14  2  0
 14 15  1  0
 15 16  2  0
 16 17  1  0
 18 19  2  0
 18 20  2  0
 18 21  1  0
 21 22  1  0
 22 27  2  0
 22 23  1  0
 23 24  2  0
 24 25  1  0
 25 26  2  0
 26 27  1  0
 27 28  1  0
  1 29  1  0
  1 30  1  0
  1 31  1  0
  3 32  1  0
  4 33  1  0
  6 34  1  0
 10 35  1  0
 11 36  1  0
 11 37  1  0
 13 38  1  0
 14 39  1  0
 15 40  1  0
 17 41  1  0
 23 42  1  0
 24 43  1  0
 25 44  1  0
 26 45  1  0
M  CHG  1  21  -1
M  END
> <Name>
ZINC17169076

> <reference>
BDB50048512

> <quality>
0.792

> <status>
decoy

$$$$
ZINC29499472
  SciTegic06061311253D

 43 45  0  0  0  0            999 V2000
   -2.8003   -4.4843    4.1735 C   0  0
   -2.0051   -5.0149    3.0084 C   0  0
   -1.8709   -6.3926    2.8220 C   0  0
   -2.4164   -7.5044    3.6336 C   0  0
   -3.0954   -7.2829    4.6205 O   0  0
   -2.1424   -8.7673    3.2525 N   0  0
   -1.3872   -9.0254    2.1565 C   0  0
   -0.8909   -8.0691    1.4196 N   0  0
   -1.1003   -6.7905    1.7057 C   0  0
   -0.6139   -5.2475    0.9755 S   0  0
   -1.4184   -4.1507    2.1312 C   0  0
   -1.4382   -2.6845    2.1392 C   0  0
   -2.0427   -2.0889    3.0116 O   0  0
   -0.7871   -1.9965    1.1805 N   0  0
   -0.8070   -0.5316    1.1886 C   0  0
    0.0021   -0.0041    0.0020 C   0  0
   -0.0184    1.5028    0.0103 C   0  0
    1.1379    2.2138    0.0031 C   0  0
    0.4975    3.8821    0.0182 S   0  0
   -1.1905    3.4742    0.0322 C   0  0
   -1.1582    2.1617    0.0192 N   0  0
   -2.3860    4.3916    0.0485 C   0  0
   -1.1123  -10.4581    1.7783 C   0  0
   -0.0850  -10.5026    0.2839 S   0  0
    0.1516  -12.2728   -0.0335 C   0  0
   -3.5717   -3.8416    3.7243 H   0  0
   -2.1060   -3.8277    4.7183 H   0  0
   -3.2275   -5.2696    4.8144 H   0  0
   -0.3228   -8.3130    0.5958 H   0  0
   -0.2755   -2.5006    0.4422 H   0  0
   -1.8457   -0.1784    1.1094 H   0  0
   -0.3647   -0.1629    2.1259 H   0  0
    1.0411   -0.3566    0.0808 H   0  0
   -0.4394   -0.3709   -0.9364 H   0  0
    2.1797    1.8610   -0.0087 H   0  0
   -2.1472    5.0312   -0.8140 H   0  0
   -2.1307    5.0221    0.9130 H   0  0
   -3.4027    3.9718    0.0560 H   0  0
   -0.5827  -10.9597    2.6016 H   0  0
   -2.0630  -10.9762    1.5842 H   0  0
   -0.7979  -12.7873   -0.2427 H   0  0
    0.6945  -12.7717    0.7828 H   0  0
    0.7732  -12.3606   -0.9368 H   0  0
  1  2  1  0
  2 11  2  0
  2  3  1  0
  3  9  2  0
  3  4  1  0
  4  5  2  0
  4  6  1  0
  6  7  2  0
  7  8  1  0
  7 23  1  0
  8  9  1  0
  9 10  1  0
 10 11  1  0
 11 12  1  0
 12 13  2  0
 12 14  1  0
 14 15  1  0
 15 16  1  0
 16 17  1  0
 17 21  1  0
 17 18  2  0
 18 19  1  0
 19 20  1  0
 20 21  2  0
 20 22  1  0
 23 24  1  0
 24 25  1  0
  1 26  1  0
  1 27  1  0
  1 28  1  0
  8 29  1  0
 14 30  1  0
 15 31  1  0
 15 32  1  0
 16 33  1  0
 16 34  1  0
 18 35  1  0
 22 36  1  0
 22 37  1  0
 22 38  1  0
 23 39  1  0
 23 40  1  0
 25 41  1  0
 25 42  1  0
 25 43  1  0
M  END
> <Name>
ZINC29499472

> <reference>
BDB50048512

> <quality>
0.791

> <status>
decoy

$$$$
ZINC06097312
  SciTegic06061311253D

 49 52  0  0  0  0            999 V2000
    1.0472    3.5737    0.0113 C   0  0
    1.1413    2.1478    0.0027 O   0  0
   -0.0177    1.4574    0.0101 C   0  0
   -1.0796    2.0514    0.0183 O   0  0
    0.0021   -0.0041    0.0020 C   0  0
   -1.2077   -0.7246    0.0097 C   0  0
   -1.3162   -2.0771   -0.0024 N   0  0
   -2.6666   -2.4065    0.0146 C   0  0
   -3.3479   -3.6159    0.0147 C   0  0
   -4.7280   -3.6274    0.0278 C   0  0
   -5.4366   -2.4375    0.0410 C   0  0
   -4.7691   -1.2295    0.0403 C   0  0
   -3.3812   -1.2065    0.0279 C   0  0
   -2.4485   -0.1758    0.0245 N   0  0
    1.2297   -0.6908   -0.0134 C   0  0
    1.2462   -1.9059   -0.0201 O   0  0
    2.5244    0.0804   -0.0216 C   0  0
    3.9159   -1.0769   -0.0411 S   0  0
    5.2607    0.0616   -0.0478 C   0  0
    5.1768    1.3736   -0.0395 N   0  0
    6.3566    1.8878   -0.0421 N   0  0
    7.2514    0.9445   -0.0480 C   0  0
    6.5859   -0.2483   -0.0566 N   0  0
    7.1881   -1.5810   -0.0851 C   0  0
    8.5658   -1.5279    0.5818 C   0  0
    9.6309   -1.1904   -0.4599 C   0  0
    9.3672    0.1805   -1.0745 C   0  0
    8.7495    1.1068   -0.0301 C   0  0
    0.4679    3.8403    0.9076 H   0  0
    0.4508    3.8499   -0.8708 H   0  0
    2.0315    4.0646    0.0045 H   0  0
   -0.5324   -2.7451   -0.0210 H   0  0
   -2.7890   -4.5633    0.0044 H   0  0
   -5.2676   -4.5860    0.0278 H   0  0
   -6.5364   -2.4553    0.0521 H   0  0
   -5.3358   -0.2868    0.0496 H   0  0
   -2.6626    0.8317    0.0319 H   0  0
    2.5660    0.7180   -0.9170 H   0  0
    2.5839    0.7089    0.8792 H   0  0
    6.5440   -2.2868    0.4598 H   0  0
    7.2985   -1.9131   -1.1280 H   0  0
    8.7931   -2.5050    1.0332 H   0  0
    8.5637   -0.7561    1.3655 H   0  0
    9.6194   -1.9521   -1.2534 H   0  0
   10.6210   -1.1891    0.0194 H   0  0
   10.3153    0.6109   -1.4292 H   0  0
    8.6757    0.0750   -1.9234 H   0  0
    9.0090    2.1495   -0.2653 H   0  0
    9.1365    0.8459    0.9660 H   0  0
  1  2  1  0
  2  3  1  0
  3  4  2  0
  3  5  1  0
  5  6  2  0
  5 15  1  0
  6 14  1  0
  6  7  1  0
  7  8  1  0
  8 13  2  0
  8  9  1  0
  9 10  2  0
 10 11  1  0
 11 12  2  0
 12 13  1  0
 13 14  1  0
 15 16  2  0
 15 17  1  0
 17 18  1  0
 18 19  1  0
 19 23  1  0
 19 20  2  0
 20 21  1  0
 21 22  2  0
 22 28  1  0
 22 23  1  0
 23 24  1  0
 24 25  1  0
 25 26  1  0
 26 27  1  0
 27 28  1  0
  1 29  1  0
  1 30  1  0
  1 31  1  0
  7 32  1  0
  9 33  1  0
 10 34  1  0
 11 35  1  0
 12 36  1  0
 14 37  1  0
 17 38  1  0
 17 39  1  0
 24 40  1  0
 24 41  1  0
 25 42  1  0
 25 43  1  0
 26 44  1  0
 26 45  1  0
 27 46  1  0
 27 47  1  0
 28 48  1  0
 28 49  1  0
M  END
> <Name>
ZINC06097312

> <reference>
BDB50048512

> <quality>
0.789

> <status>
decoy

$$$$
ZINC11651025
  SciTegic06061311253D

 49 51  0  0  1  0            999 V2000
   -0.7432    1.5313    1.2269 C   0  0
   -0.0046    1.0610   -0.0278 C   0  0  2  0  0  0
    1.4029    1.5993   -0.0136 C   0  0
    1.6645    2.6311   -0.5987 O   0  0
    2.4171    0.9047    0.6795 C   0  0
    3.7593    1.3158    0.6047 C   0  0
    4.7045    0.6145    1.2974 N   0  0
    4.3766   -0.4586    2.0339 C   0  0
    5.2557   -1.0516    2.6280 O   0  0
    3.1130   -0.9010    2.1389 N   0  0
    2.1051   -0.2746    1.4974 C   0  0
    0.9610   -0.6786    1.5940 O   0  0
    2.8254   -2.0794    2.9604 C   0  0
    6.1054    1.0379    1.2299 C   0  0
    4.1102    2.3978   -0.1418 N   0  0
   -0.8675    1.6671   -1.4988 S   0  0
   -2.3874    0.7889   -1.3455 C   0  0
   -2.6787   -0.0497   -0.3815 N   0  0
   -3.9307   -0.5432   -0.5689 C   0  0
   -4.7219   -1.4485    0.1429 C   0  0
   -5.9821   -1.7623   -0.3145 C   0  0
   -6.4724   -1.1866   -1.4773 C   0  0
   -5.7037   -0.2908   -2.1916 C   0  0
   -4.4325    0.0371   -1.7456 C   0  0
   -3.4360    0.8760   -2.2171 N   0  0
   -3.4957    1.7032   -3.4248 C   0  0
   -2.9739    0.9159   -4.5992 C   0  0
   -3.7130    0.7709   -5.6710 C   0  0
   -0.7721    2.6308    1.2462 H   0  0
   -0.2196    1.1631    2.1215 H   0  0
   -1.7707    1.1387    1.2172 H   0  0
    0.0235   -0.0385   -0.0462 H   0  0
    3.2105   -1.8361    3.9617 H   0  0
    3.4588   -2.8801    2.5510 H   0  0
    1.7611   -2.3568    2.9784 H   0  0
    6.1092    2.0857    1.5647 H   0  0
    6.3592    1.0347    0.1596 H   0  0
    6.7862    0.4085    1.8218 H   0  0
    3.3850    2.9185   -0.6555 H   0  0
    5.0949    2.6955   -0.1938 H   0  0
   -4.3393   -1.9090    1.0657 H   0  0
   -6.6047   -2.4749    0.2464 H   0  0
   -7.4807   -1.4459   -1.8323 H   0  0
   -6.0985    0.1623   -3.1129 H   0  0
   -2.8793    2.6034   -3.2848 H   0  0
   -4.5379    1.9985   -3.6160 H   0  0
   -1.9724    0.4630   -4.5564 H   0  0
   -4.7145    1.2238   -5.7138 H   0  0
   -3.3321    0.1963   -6.5282 H   0  0
  1  2  1  0
  2  3  1  0
  2 16  1  0
  3  4  2  0
  3  5  1  0
  5 11  1  0
  5  6  2  0
  6  7  1  0
  6 15  1  0
  7  8  1  0
  7 14  1  0
  8  9  2  0
  8 10  1  0
 10 11  1  0
 10 13  1  0
 11 12  2  0
 16 17  1  0
 17 25  1  0
 17 18  2  0
 18 19  1  0
 19 24  1  0
 19 20  2  0
 20 21  1  0
 21 22  2  0
 22 23  1  0
 23 24  2  0
 24 25  1  0
 25 26  1  0
 26 27  1  0
 27 28  2  0
  1 29  1  0
  1 30  1  0
  1 31  1  0
  2 32  1  0
 13 33  1  0
 13 34  1  0
 13 35  1  0
 14 36  1  0
 14 37  1  0
 14 38  1  0
 15 39  1  0
 15 40  1  0
 20 41  1  0
 21 42  1  0
 22 43  1  0
 23 44  1  0
 26 45  1  0
 26 46  1  0
 27 47  1  0
 28 48  1  0
 28 49  1  0
M  END
> <Name>
ZINC11651025

> <reference>
BDB50048512

> <quality>
0.785

> <status>
decoy

$$$$
ZINC18388686
  SciTegic06061311253D

 36 38  0  0  0  0            999 V2000
   -3.2933    9.6996   -0.8793 C   0  0
   -4.1541   10.4258   -1.6758 C   0  0
   -4.0603   10.3447   -3.0550 C   0  0
   -3.0997    9.5390   -3.6429 C   0  0
   -2.2299    8.8123   -2.8568 C   0  0
   -2.3193    8.8903   -1.4661 C   0  0
   -1.3900    8.1140   -0.6181 C   0  0
   -1.3597    8.0921    0.7391 C   0  0
   -0.3732    7.2609    1.1075 N   0  0
    0.2000    6.7855    0.0377 C   0  0
   -0.4073    7.2907   -1.0448 O   0  0
    1.3554    5.8181    0.0208 C   0  0
    0.8478    4.4578    0.0184 O   0  0
    1.7590    3.4645    0.0039 C   0  0
    2.9456    3.7284   -0.0065 O   0  0
    1.3177    2.0620    0.0006 C   0  0
    2.2644    0.9746   -0.0143 C   0  0
    1.7622   -0.2754   -0.0162 C   0  0
    0.0021   -0.0041    0.0020 S   0  0
   -0.0214    1.7273    0.0115 C   0  0
    2.6345   -1.8063   -0.0333 S   0  0
    1.7481   -2.7727   -0.5807 O   0  0
    3.9121   -1.5395   -0.5953 O   0  0
    2.8925   -2.2404    1.5438 N   0  0
   -5.1515   11.2563   -4.0508 Cl  0  0
   -3.3743    9.7582    0.2161 H   0  0
   -4.9166   11.0706   -1.2145 H   0  0
   -3.0301    9.4784   -4.7390 H   0  0
   -1.4673    8.1726   -3.3250 H   0  0
   -2.0230    8.6535    1.4136 H   0  0
    1.9602    5.9848   -0.8828 H   0  0
    1.9790    5.9744    0.9134 H   0  0
    3.3490    1.1577   -0.0237 H   0  0
   -0.8929    2.3983    0.0234 H   0  0
    2.9383   -3.2362    1.8030 H   0  0
    3.0072   -1.5146    2.2656 H   0  0
  1  6  2  0
  1  2  1  0
  2  3  2  0
  3  4  1  0
  3 25  1  0
  4  5  2  0
  5  6  1  0
  6  7  1  0
  7 11  1  0
  7  8  2  0
  8  9  1  0
  9 10  2  0
 10 11  1  0
 10 12  1  0
 12 13  1  0
 13 14  1  0
 14 15  2  0
 14 16  1  0
 16 20  2  0
 16 17  1  0
 17 18  2  0
 18 19  1  0
 18 21  1  0
 19 20  1  0
 21 22  2  0
 21 23  2  0
 21 24  1  0
  1 26  1  0
  2 27  1  0
  4 28  1  0
  5 29  1  0
  8 30  1  0
 12 31  1  0
 12 32  1  0
 17 33  1  0
 20 34  1  0
 24 35  1  0
 24 36  1  0
M  END
> <Name>
ZINC18388686

> <reference>
BDB50048512

> <quality>
0.784

> <status>
decoy

$$$$
ZINC05674649
  SciTegic06061311253D

 46 49  0  0  0  0            999 V2000
   -2.7056   -0.3508   -2.0244 C   0  0
   -2.4863   -0.5553   -0.5241 C   0  0
   -1.0528   -0.6917   -0.2542 N   0  0
   -0.1642    0.3144    0.0473 C   0  0
    1.0097   -0.2474    0.2195 N   0  0
    0.9186   -1.5171    0.0435 N   0  0
   -0.3191   -1.8442   -0.2520 C   0  0
   -0.9220   -3.4677   -0.5768 S   0  0
    0.6069   -4.4161   -0.3795 C   0  0
    0.3260   -5.8774   -0.6180 C   0  0
   -0.7975   -6.2417   -0.8942 O   0  0
    1.3231   -6.7793   -0.5245 N   0  0
    1.0845   -8.1228   -0.8423 C   0  0
    1.7457   -9.1281   -0.1496 C   0  0
    1.5084  -10.4536   -0.4592 C   0  0
    0.6171  -10.7833   -1.4675 C   0  0
   -0.0437   -9.7768   -2.1678 C   0  0
    0.1914   -8.4486   -1.8537 C   0  0
   -0.8575  -10.3551   -3.0989 O   0  0
   -0.3825  -11.7071   -3.2383 C   0  0
    0.2168  -11.9926   -1.9606 O   0  0
   -0.4740    1.7552    0.1619 C   0  0
    0.4067    2.6096    0.8276 C   0  0
    0.1170    3.9537    0.9273 C   0  0
   -1.0548    4.4559    0.3767 C   0  0
   -1.9362    3.6083   -0.2812 C   0  0
   -1.6510    2.2640   -0.3902 C   0  0
   -1.3398    5.7802    0.4824 O   0  0
   -2.3103   -1.2170   -2.5752 H   0  0
   -2.1833    0.5604   -2.3515 H   0  0
   -3.7818   -0.2483   -2.2277 H   0  0
   -2.8816    0.3115    0.0259 H   0  0
   -3.0086   -1.4664   -0.1969 H   0  0
    0.9951   -4.2798    0.6407 H   0  0
    1.3536   -4.0634   -1.1062 H   0  0
    2.2605   -6.4809   -0.2194 H   0  0
    2.4592   -8.8691    0.6465 H   0  0
    2.0280  -11.2485    0.0958 H   0  0
   -0.3294   -7.6522   -2.4055 H   0  0
   -1.2254  -12.3892   -3.4233 H   0  0
    0.3747  -11.7651   -4.0341 H   0  0
    1.3306    2.2109    1.2720 H   0  0
    0.8149    4.6292    1.4436 H   0  0
   -2.8633    4.0101   -0.7160 H   0  0
   -2.3498    1.5932   -0.9114 H   0  0
   -0.5607    6.2420    0.0826 H   0  0
  1  2  1  0
  2  3  1  0
  3  7  1  0
  3  4  1  0
  4  5  2  0
  4 22  1  0
  5  6  1  0
  6  7  2  0
  7  8  1  0
  8  9  1  0
  9 10  1  0
 10 11  2  0
 10 12  1  0
 12 13  1  0
 13 18  2  0
 13 14  1  0
 14 15  2  0
 15 16  1  0
 16 21  1  0
 16 17  2  0
 17 18  1  0
 17 19  1  0
 19 20  1  0
 20 21  1  0
 22 27  2  0
 22 23  1  0
 23 24  2  0
 24 25  1  0
 25 26  2  0
 25 28  1  0
 26 27  1  0
  1 29  1  0
  1 30  1  0
  1 31  1  0
  2 32  1  0
  2 33  1  0
  9 34  1  0
  9 35  1  0
 12 36  1  0
 14 37  1  0
 15 38  1  0
 18 39  1  0
 20 40  1  0
 20 41  1  0
 23 42  1  0
 24 43  1  0
 26 44  1  0
 27 45  1  0
 28 46  1  0
M  END
> <Name>
ZINC05674649

> <reference>
BDB50048512

> <quality>
0.781

> <status>
decoy

$$$$
ZINC13844304
  SciTegic06061311253D

 43 46  0  0  0  0            999 V2000
    1.6414    7.0673   -3.3553 C   0  0
    0.8876    7.5615   -2.2728 C   0  0
    0.7376    6.5293   -1.3956 C   0  0
    1.3581    5.4495   -1.9107 O   0  0
    1.9052    5.7717   -3.0950 C   0  0
    0.0187    6.5827   -0.1137 C   0  0
   -0.3519    7.6753    0.5329 N   0  0
   -0.9596    7.3589    1.6223 N   0  0
   -1.0132    6.0400    1.7364 C   0  0
   -0.3899    5.5137    0.6308 N   0  0
   -0.2913    4.1300    0.4740 N   0  0
   -0.7907    3.3208    1.3768 C   0  0
   -1.4400    3.8263    2.5180 C   0  0
   -1.5482    5.1696    2.7036 C   0  0
   -0.6848    1.9788    1.2055 O   0  0
   -0.0202    1.5260    0.0243 C   0  0
    0.0015   -0.0038    0.0059 C   0  0
   -1.3689   -0.5103   -0.1021 N   0  0
   -1.5957   -1.8384   -0.1363 C   0  0
   -0.6629   -2.6162   -0.0774 O   0  0
   -2.8564   -2.3044   -0.2357 N   0  0
   -3.0862   -3.6796   -0.3686 C   0  0
   -4.1415   -4.1358   -1.1474 C   0  0
   -4.3643   -5.4923   -1.2823 C   0  0
   -3.5436   -6.3980   -0.6324 C   0  0
   -2.4922   -5.9454    0.1503 C   0  0
   -2.2629   -4.5877    0.2827 C   0  0
   -1.6914   -6.8306    0.7831 F   0  0
   -3.7668   -7.7241   -0.7613 F   0  0
    1.9555    7.6324   -4.2453 H   0  0
    0.4958    8.5829   -2.1577 H   0  0
    2.4743    5.0905   -3.7446 H   0  0
   -1.8611    3.1338    3.2618 H   0  0
   -2.0475    5.5700    3.5982 H   0  0
    1.0118    1.9067    0.0140 H   0  0
   -0.5561    1.8952   -0.8625 H   0  0
    0.5895   -0.3520   -0.8561 H   0  0
    0.4572   -0.3764    0.9352 H   0  0
   -2.1590    0.1486   -0.1519 H   0  0
   -3.6509   -1.6492   -0.2139 H   0  0
   -4.8000   -3.4169   -1.6569 H   0  0
   -5.1948   -5.8532   -1.9068 H   0  0
   -1.4290   -4.2281    0.9034 H   0  0
  1  5  2  0
  1  2  1  0
  2  3  2  0
  3  4  1  0
  3  6  1  0
  4  5  1  0
  6 10  1  0
  6  7  2  0
  7  8  1  0
  8  9  2  0
  9 14  1  0
  9 10  1  0
 10 11  1  0
 11 12  2  0
 12 13  1  0
 12 15  1  0
 13 14  2  0
 15 16  1  0
 16 17  1  0
 17 18  1  0
 18 19  1  0
 19 20  2  0
 19 21  1  0
 21 22  1  0
 22 27  2  0
 22 23  1  0
 23 24  2  0
 24 25  1  0
 25 26  2  0
 25 29  1  0
 26 27  1  0
 26 28  1  0
  1 30  1  0
  2 31  1  0
  5 32  1  0
 13 33  1  0
 14 34  1  0
 16 35  1  0
 16 36  1  0
 17 37  1  0
 17 38  1  0
 18 39  1  0
 21 40  1  0
 23 41  1  0
 24 42  1  0
 27 43  1  0
M  END
> <Name>
ZINC13844304

> <reference>
BDB50048512

> <quality>
0.777

> <status>
decoy

$$$$
ZINC12803020
  SciTegic06061311253D

 43 45  0  0  0  0            999 V2000
    1.1766    1.7808    0.0004 C   0  0
    1.1657    3.1608    0.0074 C   0  0
   -0.0487    3.8483    0.0223 C   0  0
   -1.2481    3.1354    0.0299 C   0  0
   -1.2258    1.7511    0.0174 C   0  0
   -0.0126    1.0758    0.0080 C   0  0
   -2.3918    1.0529    0.0191 O   0  0
   -2.2943   -0.3727    0.0109 C   0  0  1  0  0  0
   -1.6100   -0.7868   -1.1369 F   0  0
   -1.5991   -0.7992    1.1476 F   0  0
   -0.0643    5.3268    0.0304 C   0  0
   -1.1233    5.9233    0.0433 O   0  0
    1.0957    6.0129    0.0234 N   0  0
    1.0809    7.4138    0.0311 N   0  0
    2.2409    8.1000    0.0241 C   0  0
    3.3007    7.5029    0.0112 O   0  0
    2.2254    9.5716    0.0322 C   0  0
    3.4005   10.2803    0.0247 C   0  0
    2.7791   11.9565    0.0397 S   0  0
    1.0381   11.5541    0.0543 C   0  0
    1.0680   10.2368    0.0413 N   0  0
   -0.0553   12.4035    0.0698 N   0  0
   -0.9491   12.1326   -1.0656 C   0  0
   -2.1710   13.0507   -0.9766 C   0  0
   -1.7361   14.4128   -0.9429 O   0  0
   -0.8644   14.7119    0.1507 C   0  0
    0.3707   13.8106    0.0732 C   0  0
    2.1345    1.2401   -0.0113 H   0  0
    2.1138    3.7186    0.0012 H   0  0
   -2.2085    3.6716    0.0458 H   0  0
    0.0024   -0.0241    0.0066 H   0  0
   -3.3040   -0.8092    0.0133 H   0  0
    1.9930    5.5074    0.0124 H   0  0
    0.1835    7.9193    0.0421 H   0  0
    4.4387    9.9171    0.0128 H   0  0
   -1.2765   11.0829   -1.0344 H   0  0
   -0.4146   12.3240   -2.0078 H   0  0
   -2.8139   12.8926   -1.8550 H   0  0
   -2.7363   12.8236   -0.0607 H   0  0
   -0.5534   15.7655    0.0951 H   0  0
   -1.3898   14.5325    1.1003 H   0  0
    1.0158   13.9970    0.9444 H   0  0
    0.9266   14.0294   -0.8504 H   0  0
  1  6  2  0
  1  2  1  0
  2  3  2  0
  3  4  1  0
  3 11  1  0
  4  5  2  0
  5  6  1  0
  5  7  1  0
  7  8  1  0
  8  9  1  0
  8 10  1  0
 11 12  2  0
 11 13  1  0
 13 14  1  0
 14 15  1  0
 15 16  2  0
 15 17  1  0
 17 21  1  0
 17 18  2  0
 18 19  1  0
 19 20  1  0
 20 21  2  0
 20 22  1  0
 22 27  1  0
 22 23  1  0
 23 24  1  0
 24 25  1  0
 25 26  1  0
 26 27  1  0
  1 28  1  0
  2 29  1  0
  4 30  1  0
  6 31  1  0
  8 32  1  0
 13 33  1  0
 14 34  1  0
 18 35  1  0
 23 36  1  0
 23 37  1  0
 24 38  1  0
 24 39  1  0
 26 40  1  0
 26 41  1  0
 27 42  1  0
 27 43  1  0
M  END
> <Name>
ZINC12803020

> <reference>
BDB50048512

> <quality>
0.777

> <status>
decoy

$$$$
ZINC31625362
  SciTegic06061311253D

 43 45  0  0  0  0            999 V2000
    7.2003   -5.1365   -7.6509 C   0  0
    6.0722   -4.1031   -7.6710 C   0  0
    6.2423   -3.1794   -6.5637 O   0  0
    5.3249   -2.1997   -6.4375 C   0  0
    4.4078   -2.1198   -7.2316 O   0  0
    5.4334   -1.2281   -5.3400 C   0  0
    6.0968   -0.0391   -5.3558 C   0  0
    5.9686    0.5668   -4.1681 O   0  0
    5.2307   -0.1689   -3.3186 C   0  0
    4.8475   -1.3374   -3.9925 C   0  0
    4.0638   -2.2813   -3.3207 C   0  0
    3.7168   -2.0316   -2.0601 N   0  0
    4.0937   -0.9167   -1.4628 C   0  0
    4.8309   -0.0043   -2.0601 N   0  0
    3.6676   -0.6813   -0.0366 C   0  0
    2.3855    0.0273   -0.0206 N   0  0
    2.3691    1.3848   -0.0127 C   0  0
    1.1971    2.0617    0.0017 C   0  0
   -0.0164    1.3598    0.0095 C   0  0
    0.0021   -0.0041    0.0020 C   0  0
    1.2367   -0.6752   -0.0134 C   0  0
    1.2678   -1.8954   -0.0206 O   0  0
    1.1967    3.5687    0.0098 C   0  0  1  0  0  0
    1.0691    4.0420   -1.3005 F   0  0
    0.1234    4.0306    0.7791 F   0  0
    2.3972    4.0324    0.5583 F   0  0
    3.6640   -3.4478   -3.9489 N   0  0
    6.8603    0.5122   -6.5324 C   0  0
    7.1723   -5.6930   -6.7025 H   0  0
    8.1694   -4.6249   -7.7467 H   0  0
    7.0721   -5.8366   -8.4896 H   0  0
    6.1011   -3.5469   -8.6196 H   0  0
    5.1031   -4.6146   -7.5753 H   0  0
    4.4271   -0.0752    0.4789 H   0  0
    3.5584   -1.6475    0.4778 H   0  0
    3.3184    1.9405   -0.0181 H   0  0
   -0.9729    1.9029    0.0215 H   0  0
   -0.9395   -0.5727    0.0079 H   0  0
    3.9489   -3.6201   -4.9236 H   0  0
    3.0869   -4.1385   -3.4481 H   0  0
    6.1104    0.5076   -7.3371 H   0  0
    7.5664   -0.2973   -6.7694 H   0  0
    7.3410    1.4897   -6.3795 H   0  0
  1  2  1  0
  2  3  1  0
  3  4  1  0
  4  5  2  0
  4  6  1  0
  6 10  1  0
  6  7  2  0
  7  8  1  0
  7 28  1  0
  8  9  1  0
  9 14  2  0
  9 10  1  0
 10 11  2  0
 11 12  1  0
 11 27  1  0
 12 13  2  0
 13 14  1  0
 13 15  1  0
 15 16  1  0
 16 21  1  0
 16 17  1  0
 17 18  2  0
 18 19  1  0
 18 23  1  0
 19 20  2  0
 20 21  1  0
 21 22  2  0
 23 24  1  0
 23 25  1  0
 23 26  1  0
  1 29  1  0
  1 30  1  0
  1 31  1  0
  2 32  1  0
  2 33  1  0
 15 34  1  0
 15 35  1  0
 17 36  1  0
 19 37  1  0
 20 38  1  0
 27 39  1  0
 27 40  1  0
 28 41  1  0
 28 42  1  0
 28 43  1  0
M  END
> <Name>
ZINC31625362

> <reference>
BDB50048512

> <quality>
0.776

> <status>
decoy

$$$$
ZINC00914465
  SciTegic06061311253D

 52 54  0  0  1  0            999 V2000
    1.1201   -1.7303   -1.4119 C   0  0
    1.0972   -0.2573   -1.0945 C   0  0
   -0.0989    0.4355   -1.1145 C   0  0
   -0.1199    1.7867   -0.8233 C   0  0
    1.0550    2.4449   -0.5117 C   0  0
    2.2510    1.7521   -0.4917 C   0  0
    2.2721    0.4010   -0.7828 C   0  0
    1.0282    4.1673   -0.1410 S   0  0
    2.2825    4.6914   -0.5552 O   0  0
   -0.2069    4.6693   -0.6326 O   0  0
    0.9757    4.3126    1.5077 N   0  0
    2.2143    4.2551    2.2880 C   0  0
    2.7219    5.6754    2.5445 C   0  0
    1.7873    6.3735    3.3698 O   0  0
   -0.3094    4.4987    2.1861 C   0  0
   -0.6047    3.2940    3.0421 C   0  0
   -0.2576    3.2953    4.3528 C   0  0
   -0.5628    2.1113    5.1582 C   0  0
   -0.2327    2.0553    6.5164 C   0  0
   -0.5255    0.9335    7.2388 C   0  0
   -1.1476   -0.1520    6.6369 C   0  0
   -1.4827   -0.1186    5.3006 C   0  0
   -1.1939    1.0130    4.5446 C   0  0
   -1.5163    1.0729    3.2056 N   0  0
   -1.2363    2.1664    2.4751 C   0  0
   -1.5350    2.1841    1.2936 O   0  0
   -2.1585   -1.3037    4.6604 C   0  0
   -0.1698    0.8734    8.7019 C   0  0
    1.5829   -2.2047   -0.5339 H   0  0
    1.8284   -1.8316   -2.2474 H   0  0
    0.1308   -2.1508   -1.6452 H   0  0
   -1.0339   -0.0884   -1.3621 H   0  0
   -1.0716    2.3381   -0.8396 H   0  0
    3.1860    2.2760   -0.2441 H   0  0
    3.2238   -0.1504   -0.7664 H   0  0
    2.9750    3.6900    1.7294 H   0  0
    2.0196    3.7568    3.2491 H   0  0
    3.6966    5.6304    3.0524 H   0  0
    2.8315    6.2053    1.5868 H   0  0
    1.6883    5.8983    4.2326 H   0  0
   -0.2627    5.3961    2.8206 H   0  0
   -1.1063    4.6199    1.4376 H   0  0
    0.2422    4.1666    4.8011 H   0  0
    0.2606    2.9110    7.0007 H   0  0
   -1.3754   -1.0480    7.2329 H   0  0
   -1.9784    0.2683    2.7583 H   0  0
   -3.0650   -1.4731    5.2600 H   0  0
   -1.4830   -2.1517    4.8463 H   0  0
   -2.3794   -1.1672    3.5915 H   0  0
   -0.6704    1.7409    9.1567 H   0  0
    0.9132    1.0617    8.7438 H   0  0
   -0.4498   -0.0737    9.1862 H   0  0
  1  2  1  0
  2  7  2  0
  2  3  1  0
  3  4  2  0
  4  5  1  0
  5  6  2  0
  5  8  1  0
  6  7  1  0
  8  9  2  0
  8 10  2  0
  8 11  1  0
 11 12  1  0
 11 15  1  0
 12 13  1  0
 13 14  1  0
 15 16  1  0
 16 25  1  0
 16 17  2  0
 17 18  1  0
 18 23  2  0
 18 19  1  0
 19 20  2  0
 20 21  1  0
 20 28  1  0
 21 22  2  0
 22 23  1  0
 22 27  1  0
 23 24  1  0
 24 25  1  0
 25 26  2  0
  1 29  1  0
  1 30  1  0
  1 31  1  0
  3 32  1  0
  4 33  1  0
  6 34  1  0
  7 35  1  0
 12 36  1  0
 12 37  1  0
 13 38  1  0
 13 39  1  0
 14 40  1  0
 15 41  1  0
 15 42  1  0
 17 43  1  0
 19 44  1  0
 21 45  1  0
 24 46  1  0
 27 47  1  0
 27 48  1  0
 27 49  1  0
 28 50  1  0
 28 51  1  0
 28 52  1  0
M  END
> <Name>
ZINC00914465

> <reference>
BDB50048512

> <quality>
0.770

> <status>
decoy

$$$$
ZINC10861573
  SciTegic06061311253D

 52 54  0  0  1  0            999 V2000
   -0.0187    1.5258    0.0104 C   0  0
    0.0021   -0.0041    0.0020 C   0  0  1  0  0  0
    0.7421   -0.5109    1.2415 C   0  0
    0.7628   -2.0407    1.2331 C   0  0
   -0.6726   -2.5703    1.2440 C   0  0
   -1.4126   -2.0635    0.0045 C   0  0
   -1.4333   -0.5336    0.0129 C   0  0  1  0  0  0
   -2.1190   -0.0612    1.2182 N   0  0
   -3.4622    0.0493    1.2298 C   0  0
   -4.1046   -0.2431    0.2404 O   0  0
   -4.0930    0.4839    2.3387 N   0  0
   -5.4362    0.5944    2.3503 C   0  0
   -6.0770    0.3027    1.3633 O   0  0
   -6.1416    1.0804    3.5902 C   0  0
   -7.9266    1.1187    3.2930 S   0  0
   -8.4848    1.7057    4.8578 C   0  0
   -7.7327    2.0003    5.8964 N   0  0
   -8.4575    2.4027    6.8771 N   0  0
   -9.7042    2.3884    6.5500 N   0  0
   -9.7717    1.9338    5.2213 N   0  0
  -10.9230    1.7548    4.4391 C   0  0
  -10.8842    2.0171    3.0764 C   0  0
  -12.0158    1.8358    2.3062 C   0  0
  -13.1944    1.4021    2.8960 C   0  0
  -13.2350    1.1449    4.2587 C   0  0
  -12.1025    1.3209    5.0287 C   0  0
  -14.3098    1.2296    2.1384 O   0  0
  -14.1962    1.5130    0.7424 C   0  0
   -0.5331    1.8816    0.9153 H   0  0
   -0.5503    1.8913   -0.8806 H   0  0
    1.0130    1.9072    0.0026 H   0  0
    0.5170   -0.3589   -0.9030 H   0  0
    1.7743   -0.1307    1.2335 H   0  0
    0.2279   -0.1569    2.1472 H   0  0
    1.2944   -2.4062    2.1240 H   0  0
    1.2771   -2.3956    0.3278 H   0  0
   -0.6578   -3.6702    1.2374 H   0  0
   -1.1885   -2.2159    2.1486 H   0  0
   -2.4449   -2.4435    0.0115 H   0  0
   -0.8975   -2.4177   -0.9006 H   0  0
   -1.9653   -0.1691   -0.8782 H   0  0
   -1.5746    0.1865    2.0568 H   0  0
   -3.5486    0.7316    3.1773 H   0  0
   -5.9243    0.3997    4.4265 H   0  0
   -5.7906    2.0924    3.8403 H   0  0
   -9.9522    2.3693    2.6103 H   0  0
  -11.9829    2.0352    1.2249 H   0  0
  -14.1695    0.8007    4.7258 H   0  0
  -12.1349    1.1173    6.1092 H   0  0
  -13.3905    0.8687    0.3606 H   0  0
  -13.8585    2.5570    0.6653 H   0  0
  -15.1377    1.3504    0.1972 H   0  0
  1  2  1  0
  2  7  1  0
  2  3  1  0
  3  4  1  0
  4  5  1  0
  5  6  1  0
  6  7  1  0
  7  8  1  0
  8  9  1  0
  9 10  2  0
  9 11  1  0
 11 12  1  0
 12 13  2  0
 12 14  1  0
 14 15  1  0
 15 16  1  0
 16 20  1  0
 16 17  2  0
 17 18  1  0
 18 19  2  0
 19 20  1  0
 20 21  1  0
 21 26  2  0
 21 22  1  0
 22 23  2  0
 23 24  1  0
 24 25  2  0
 24 27  1  0
 25 26  1  0
 27 28  1  0
  1 29  1  0
  1 30  1  0
  1 31  1  0
  2 32  1  0
  3 33  1  0
  3 34  1  0
  4 35  1  0
  4 36  1  0
  5 37  1  0
  5 38  1  0
  6 39  1  0
  6 40  1  0
  7 41  1  0
  8 42  1  0
 11 43  1  0
 14 44  1  0
 14 45  1  0
 22 46  1  0
 23 47  1  0
 25 48  1  0
 26 49  1  0
 28 50  1  0
 28 51  1  0
 28 52  1  0
M  END
> <Name>
ZINC10861573

> <reference>
BDB50048512

> <quality>
0.769

> <status>
decoy

$$$$
ZINC29498171
  SciTegic06061311253D

 55 57  0  0  1  0            999 V2000
   -2.0101  -10.1823   -5.5632 C   0  0
   -1.0831   -9.3843   -4.6440 C   0  0
   -0.3935   -8.2807   -5.4486 C   0  0
    0.4941   -7.5167   -4.5684 N   0  0
    0.0048   -6.4080   -3.8995 C   0  0
    0.8770   -5.6927   -3.0614 C   0  0
    0.4032   -4.5650   -2.3729 C   0  0
   -0.9345   -4.2092   -2.5553 C   0  0
   -1.7264   -4.9655   -3.4038 C   0  0
   -1.2521   -6.0197   -4.0367 N   0  0
   -3.1685   -4.5763   -3.6038 C   0  0  1  0  0  0
   -4.0199   -5.1824   -2.4863 C   0  0
   -3.2945   -3.0519   -3.5713 C   0  0
    1.2901   -3.7831   -1.4788 C   0  0
    2.3582   -3.3742   -1.8888 O   0  0
    0.9116   -3.5257   -0.2112 N   0  0
    1.7882   -2.7529    0.6724 C   0  0  2  0  0  0
    2.8096   -3.6882    1.3226 C   0  0
    0.9622   -2.0885    1.7436 C   0  0
    1.1423   -0.8420    2.2161 C   0  0
    0.1519   -0.6309    3.2027 C   0  0
   -0.5742   -1.7609    3.2741 C   0  0
   -0.0789   -2.6403    2.3880 O   0  0
   -1.7484   -1.9977    4.1885 C   0  0
    2.2692   -6.1561   -2.9338 C   0  0
    3.0601   -5.5692   -2.2208 O   0  0
    2.6434   -7.2514   -3.6314 N   0  0
    1.7727   -7.9009   -4.4200 C   0  0
    2.1588   -8.8806   -5.0275 O   0  0
   -1.4222  -10.6346   -6.3755 H   0  0
   -2.7701   -9.5119   -5.9908 H   0  0
   -2.5062  -10.9760   -4.9853 H   0  0
   -1.6718   -8.9322   -3.8322 H   0  0
   -0.3231  -10.0547   -4.2163 H   0  0
   -1.1521   -7.6085   -5.8762 H   0  0
    0.1958   -8.7322   -6.2603 H   0  0
   -1.3549   -3.3382   -2.0312 H   0  0
   -3.5184   -4.9525   -4.5765 H   0  0
   -3.6710   -4.8066   -1.5131 H   0  0
   -3.9302   -6.2785   -2.5089 H   0  0
   -5.0727   -4.8987   -2.6316 H   0  0
   -2.6828   -2.6152   -4.3745 H   0  0
   -2.9452   -2.6747   -2.5988 H   0  0
   -4.3469   -2.7671   -3.7172 H   0  0
    0.0061   -3.8723    0.1364 H   0  0
    2.3149   -1.9852    0.0865 H   0  0
    3.4132   -4.1735    0.5415 H   0  0
    2.2839   -4.4561    1.9090 H   0  0
    3.4681   -3.1086    1.9862 H   0  0
    1.9124   -0.1246    1.8962 H   0  0
    0.0036    0.2823    3.7978 H   0  0
   -2.4165   -1.1576    3.9479 H   0  0
   -1.3305   -1.7775    5.1819 H   0  0
   -2.2287   -2.9846    4.1155 H   0  0
    3.6121   -7.5933   -3.5568 H   0  0
  1  2  1  0
  2  3  1  0
  3  4  1  0
  4 28  1  0
  4  5  1  0
  5 10  2  0
  5  6  1  0
  6  7  2  0
  6 25  1  0
  7  8  1  0
  7 14  1  0
  8  9  2  0
  9 10  1  0
  9 11  1  0
 11 12  1  0
 11 13  1  0
 14 15  2  0
 14 16  1  0
 16 17  1  0
 17 18  1  0
 17 19  1  0
 19 23  1  0
 19 20  2  0
 20 21  1  0
 21 22  2  0
 22 23  1  0
 22 24  1  0
 25 26  2  0
 25 27  1  0
 27 28  1  0
 28 29  2  0
  1 30  1  0
  1 31  1  0
  1 32  1  0
  2 33  1  0
  2 34  1  0
  3 35  1  0
  3 36  1  0
  8 37  1  0
 11 38  1  0
 12 39  1  0
 12 40  1  0
 12 41  1  0
 13 42  1  0
 13 43  1  0
 13 44  1  0
 16 45  1  0
 17 46  1  0
 18 47  1  0
 18 48  1  0
 18 49  1  0
 20 50  1  0
 21 51  1  0
 24 52  1  0
 24 53  1  0
 24 54  1  0
 27 55  1  0
M  END
> <Name>
ZINC29498171

> <reference>
BDB50048512

> <quality>
0.766

> <status>
decoy

$$$$
ZINC12123386
  SciTegic06061311253D

 46 49  0  0  0  0            999 V2000
    6.4652    3.5400   -0.0220 C   0  0
    5.9821    4.9674   -0.0100 C   0  0
    6.8830    5.9913   -0.0079 C   0  0
    6.4057    7.3156    0.0029 C   0  0
    7.1821    8.2566    0.0051 O   0  0
    5.0716    7.5236    0.0052 N   0  0
    4.2229    6.4622    0.0081 C   0  0
    4.6757    5.2275   -0.0020 N   0  0
    2.8582    6.6844    0.0162 N   0  0
    1.8866    5.7259    0.0148 C   0  0
    0.6859    6.3643    0.0302 C   0  0
    0.9313    7.7418    0.0355 C   0  0
    2.2248    7.9339    0.0239 N   0  0
   -0.1187    8.8226    0.0515 C   0  0  2  0  0  0
   -1.5490    8.4235   -0.3171 C   0  0
   -0.7100    9.2530   -1.2924 C   0  0
    2.0878    4.3476    0.0055 N   0  0
    1.0302    3.5122    0.0111 C   0  0
   -0.0967    3.9605    0.0243 O   0  0
    1.2479    2.0210    0.0010 C   0  0
   -0.0164    1.3550    0.0095 O   0  0
    0.0021   -0.0041    0.0020 C   0  0
    1.2121   -0.6821   -0.0190 C   0  0
    1.2288   -2.0635   -0.0217 C   0  0
    0.0396   -2.7706   -0.0142 C   0  0
   -1.1684   -2.0961    0.0015 C   0  0
   -1.1892   -0.7148    0.0096 C   0  0
    0.0631   -4.5065   -0.0237 Cl  0  0
    5.9997    3.0856   -0.9090 H   0  0
    6.0082    3.0735    0.8632 H   0  0
    7.5611    3.4448   -0.0279 H   0  0
    7.9636    5.7859   -0.0145 H   0  0
    4.6984    8.4836    0.0048 H   0  0
   -0.3032    5.8829    0.0372 H   0  0
    0.3496    9.3450    0.8987 H   0  0
   -2.2895    9.0458    0.2066 H   0  0
   -1.6058    7.3704   -0.6299 H   0  0
   -0.3263    8.6362   -2.1184 H   0  0
   -1.0088   10.3116   -1.2809 H   0  0
    3.0448    3.9669   -0.0057 H   0  0
    1.8049    1.7378   -0.9043 H   0  0
    1.8223    1.7271    0.8919 H   0  0
    2.1577   -0.1202   -0.0335 H   0  0
    2.1882   -2.6016   -0.0298 H   0  0
   -2.1128   -2.6601    0.0075 H   0  0
   -2.1497   -0.1789    0.0221 H   0  0
  1  2  1  0
  2  8  1  0
  2  3  2  0
  3  4  1  0
  4  5  2  0
  4  6  1  0
  6  7  1  0
  7  8  2  0
  7  9  1  0
  9 13  1  0
  9 10  1  0
 10 11  2  0
 10 17  1  0
 11 12  1  0
 12 13  2  0
 12 14  1  0
 14 16  1  0
 14 15  1  0
 15 16  1  0
 17 18  1  0
 18 19  2  0
 18 20  1  0
 20 21  1  0
 21 22  1  0
 22 27  2  0
 22 23  1  0
 23 24  2  0
 24 25  1  0
 25 26  2  0
 25 28  1  0
 26 27  1  0
  1 29  1  0
  1 30  1  0
  1 31  1  0
  3 32  1  0
  6 33  1  0
 11 34  1  0
 14 35  1  0
 15 36  1  0
 15 37  1  0
 16 38  1  0
 16 39  1  0
 17 40  1  0
 20 41  1  0
 20 42  1  0
 23 43  1  0
 24 44  1  0
 26 45  1  0
 27 46  1  0
M  END
> <Name>
ZINC12123386

> <reference>
BDB50048512

> <quality>
0.765

> <status>
decoy

$$$$
ZINC05408248
  SciTegic06061311253D

 50 52  0  0  1  0            999 V2000
    3.6503    6.4171    7.3844 C   0  0
    3.9566    5.8037    6.0423 C   0  0
    2.9594    5.2760    5.3492 C   0  0
    3.2049    4.6558    4.0380 C   0  0
    2.2894    3.9463    3.4478 N   0  0
    2.5491    3.3666    2.1991 N   0  0
    1.5877    2.6215    1.5792 C   0  0
    0.3628    2.3443    2.0072 N   0  0
   -0.5006    1.6199    1.3494 C   0  0
   -1.6151    1.3890    1.7767 O   0  0
   -0.0148    1.0839    0.0084 C   0  5
    1.6824    1.7900   -0.0005 S   0  0
   -0.8530    1.6297   -1.1494 C   0  0
   -0.3465    1.0591   -2.4489 C   0  0
    0.5924    0.2913   -2.4491 O   0  0
   -0.9370    1.4018   -3.6110 N   0  0
   -0.4073    0.9493   -4.8257 C   0  0
   -0.4634    1.7580   -5.9529 C   0  0
    0.0656    1.3124   -7.1484 C   0  0
    0.6402    0.0549   -7.2264 C   0  0
    0.6916   -0.7556   -6.1048 C   0  0
    0.1697   -0.3111   -4.9059 C   0  0
    1.1517   -0.3815   -8.3982 F   0  0
    4.5636    4.8673    3.4021 C   0  0
    5.6145    4.7368    4.5082 C   0  0  2  0  0  0
    5.3757    5.8215    5.5575 C   0  0
    7.0127    4.9030    3.9095 C   0  0
    5.4958    3.3582    5.1610 C   0  0
    4.0090    7.4551    7.3226 H   0  0
    4.2952    5.8904    8.1032 H   0  0
    2.5871    6.3606    7.6610 H   0  0
    1.9383    5.3016    5.7575 H   0  0
    3.4654    3.5026    1.7487 H   0  0
   -0.7737    2.7265   -1.1758 H   0  0
   -1.9051    1.3414   -1.0083 H   0  0
   -1.7779    1.9966   -3.6056 H   0  0
   -0.9288    2.7529   -5.8939 H   0  0
    0.0304    1.9568   -8.0392 H   0  0
    1.1484   -1.7542   -6.1688 H   0  0
    0.2111   -0.9551   -4.0151 H   0  0
    4.7375    4.1003    2.6330 H   0  0
    4.6151    5.8727    2.9587 H   0  0
    6.0525    5.6564    6.4088 H   0  0
    5.5959    6.8053    5.1175 H   0  0
    7.0956    5.8948    3.4410 H   0  0
    7.1815    4.1249    3.1505 H   0  0
    7.7672    4.8092    4.7044 H   0  0
    5.6617    2.5768    4.4047 H   0  0
    4.4917    3.2411    5.5947 H   0  0
    6.2501    3.2628    5.9559 H   0  0
  1  2  1  0
  2 26  1  0
  2  3  2  0
  3  4  1  0
  4  5  2  0
  4 24  1  0
  5  6  1  0
  6  7  1  0
  7 12  1  0
  7  8  2  0
  8  9  1  0
  9 10  2  0
  9 11  1  0
 11 12  1  0
 11 13  1  0
 13 14  1  0
 14 15  2  0
 14 16  1  0
 16 17  1  0
 17 22  2  0
 17 18  1  0
 18 19  2  0
 19 20  1  0
 20 21  2  0
 20 23  1  0
 21 22  1  0
 24 25  1  0
 25 26  1  0
 25 27  1  0
 25 28  1  0
  1 29  1  0
  1 30  1  0
  1 31  1  0
  3 32  1  0
  6 33  1  0
 13 34  1  0
 13 35  1  0
 16 36  1  0
 18 37  1  0
 19 38  1  0
 21 39  1  0
 22 40  1  0
 24 41  1  0
 24 42  1  0
 26 43  1  0
 26 44  1  0
 27 45  1  0
 27 46  1  0
 27 47  1  0
 28 48  1  0
 28 49  1  0
 28 50  1  0
M  CHG  1  11  -1
M  END
> <Name>
ZINC05408248

> <reference>
BDB50048512

> <quality>
0.763

> <status>
decoy

$$$$
ZINC30342941
  SciTegic06061311253D

 53 55  0  0  1  0            999 V2000
   -0.3709   -2.4493   -1.6771 C   0  0
   -0.4616   -1.7487   -0.3200 C   0  0  2  0  0  0
   -1.5690   -0.7136   -0.3271 C   0  0
   -2.7527   -0.9089   -0.5013 O   0  0
   -0.9640    0.4688   -0.0986 N   0  0
    0.3580    0.3261    0.0503 C   0  0
    1.1174    1.2505    0.2647 O   0  0
    0.7527   -0.9548   -0.0644 N   0  5
   -1.6663    1.7526   -0.0283 C   0  0
   -2.0898    2.0162    1.3938 C   0  0
   -1.8306    1.2109    2.2630 O   0  0
   -2.7567    3.1467    1.6997 N   0  0
   -3.2322    3.3490    3.0022 C   0  0
   -2.5090    2.8767    4.0877 C   0  0
   -2.9800    3.0774    5.3714 C   0  0
   -4.1717    3.7480    5.5774 C   0  0
   -4.8978    4.2215    4.5005 C   0  0
   -4.4294    4.0299    3.2107 C   0  0
   -5.1394    4.5003    2.1508 O   0  0
   -6.3577    5.1888    2.4402 C   0  0
   -2.1932    2.5637    6.5496 C   0  0  1  0  0  0
   -0.8067    3.2106    6.5580 C   0  0
   -2.9275    2.9145    7.8452 C   0  0
   -2.0466    1.0446    6.4417 C   0  0
   -0.6829   -2.7543    0.7803 C   0  0
    0.2800   -3.4203    1.4427 C   0  0
   -0.3701   -4.2534    2.3820 C   0  0
   -1.6913   -4.0466    2.2375 C   0  0
   -1.8747   -3.1334    1.2699 O   0  0
    0.5077   -3.1112   -1.6811 H   0  0
   -0.2559   -1.6908   -2.4654 H   0  0
   -1.2819   -3.0387   -1.8576 H   0  0
   -2.5555    1.7213   -0.6751 H   0  0
   -0.9956    2.5566   -0.3656 H   0  0
   -2.9169    3.8620    0.9761 H   0  0
   -1.5609    2.3426    3.9268 H   0  0
   -4.5429    3.9051    6.6009 H   0  0
   -5.8477    4.7505    4.6677 H   0  0
   -6.0904    6.0253    3.1027 H   0  0
   -6.9798    4.4878    3.0161 H   0  0
   -6.8743    5.5386    1.5342 H   0  0
   -0.9110    4.3029    6.6358 H   0  0
   -0.2778    2.9588    5.6270 H   0  0
   -0.2318    2.8361    7.4178 H   0  0
   -3.9245    2.4497    7.8402 H   0  0
   -3.0332    4.0066    7.9239 H   0  0
   -2.3537    2.5398    8.7057 H   0  0
   -1.5185    0.7914    5.5106 H   0  0
   -3.0430    0.5785    6.4358 H   0  0
   -1.4724    0.6690    7.3014 H   0  0
    1.3650   -3.3334    1.2840 H   0  0
    0.1121   -4.9391    3.0943 H   0  0
   -2.4867   -4.5415    2.8141 H   0  0
  1  2  1  0
  2  8  1  0
  2  3  1  0
  2 25  1  0
  3  4  2  0
  3  5  1  0
  5  6  1  0
  5  9  1  0
  6  7  2  0
  6  8  1  0
  9 10  1  0
 10 11  2  0
 10 12  1  0
 12 13  1  0
 13 18  2  0
 13 14  1  0
 14 15  2  0
 15 16  1  0
 15 21  1  0
 16 17  2  0
 17 18  1  0
 18 19  1  0
 19 20  1  0
 21 22  1  0
 21 23  1  0
 21 24  1  0
 25 29  1  0
 25 26  2  0
 26 27  1  0
 27 28  2  0
 28 29  1  0
  1 30  1  0
  1 31  1  0
  1 32  1  0
  9 33  1  0
  9 34  1  0
 12 35  1  0
 14 36  1  0
 16 37  1  0
 17 38  1  0
 20 39  1  0
 20 40  1  0
 20 41  1  0
 22 42  1  0
 22 43  1  0
 22 44  1  0
 23 45  1  0
 23 46  1  0
 23 47  1  0
 24 48  1  0
 24 49  1  0
 24 50  1  0
 26 51  1  0
 27 52  1  0
 28 53  1  0
M  CHG  1   8  -1
M  END
> <Name>
ZINC30342941

> <reference>
BDB50048512

> <quality>
0.761

> <status>
decoy

$$$$
ZINC29064905
  SciTegic06061311253D

 39 40  0  0  1  0            999 V2000
   -3.5459    3.0404    1.0996 C   0  0
   -3.5642    1.6912    0.4285 C   0  0
   -4.7489    0.9892    0.3195 C   0  0
   -4.7652   -0.2521   -0.2909 C   0  0
   -3.5967   -0.7911   -0.7999 C   0  0
   -2.4107   -0.0912   -0.6987 C   0  0
   -2.3913    1.1550   -0.0860 C   0  0
   -1.1906    1.8666    0.0178 N   0  0
   -0.0143    1.2090    0.0055 C   0  0
    0.0025   -0.0038    0.0055 O   0  0
    1.2802    1.9804   -0.0146 C   0  0
    2.4097    1.0413   -0.0318 N   0  0
    2.4778    0.2769    1.2208 C   0  0
    3.6741    1.7433   -0.2896 C   0  0
    4.7654    0.7356   -0.5435 C   0  0
    4.5146   -0.4506   -0.5128 O   0  5
    6.0201    1.1526   -0.8048 N   0  0
    7.0268    0.2231   -1.0391 C   0  0
    6.9541   -1.0937   -1.0432 N   0  0
    8.0154   -1.8358   -1.2915 C   0  0
    9.1958   -1.2147   -1.5328 C   0  0
    8.7043    0.4977   -1.3939 S   0  0
   -6.3874   -1.2138   -0.4307 Br  0  0
   -3.1285    3.7271    0.3484 H   0  0
   -2.8018    2.9486    1.9045 H   0  0
   -4.5288    3.3676    1.4696 H   0  0
   -5.6802    1.4176    0.7184 H   0  0
   -3.6127   -1.7780   -1.2855 H   0  0
   -1.4821   -0.5203   -1.1030 H   0  0
   -1.2060    2.8929    0.1036 H   0  0
    1.3163    2.6130   -0.9138 H   0  0
    1.3447    2.6140    0.8823 H   0  0
    1.5384   -0.2809    1.3484 H   0  0
    2.5965    0.9787    2.0595 H   0  0
    3.3273   -0.4214    1.1937 H   0  0
    3.9388    2.3570    0.5841 H   0  0
    3.5610    2.3906   -1.1718 H   0  0
    7.9445   -2.9335   -1.3026 H   0  0
   10.1835   -1.6457   -1.7532 H   0  0
  1  2  1  0
  2  7  2  0
  2  3  1  0
  3  4  2  0
  4  5  1  0
  4 23  1  0
  5  6  2  0
  6  7  1  0
  7  8  1  0
  8  9  1  0
  9 10  2  0
  9 11  1  0
 11 12  1  0
 12 13  1  0
 12 14  1  0
 14 15  1  0
 15 16  1  0
 15 17  2  0
 17 18  1  0
 18 22  1  0
 18 19  2  0
 19 20  1  0
 20 21  2  0
 21 22  1  0
  1 24  1  0
  1 25  1  0
  1 26  1  0
  3 27  1  0
  5 28  1  0
  6 29  1  0
  8 30  1  0
 11 31  1  0
 11 32  1  0
 13 33  1  0
 13 34  1  0
 13 35  1  0
 14 36  1  0
 14 37  1  0
 20 38  1  0
 21 39  1  0
M  CHG  1  16  -1
M  END
> <Name>
ZINC29064905

> <reference>
BDB50048512

> <quality>
0.759

> <status>
decoy

$$$$
ZINC31274196
  SciTegic06061311253D

 46 48  0  0  0  0            999 V2000
    9.5201   -2.8219  -13.2131 C   0  0
    8.8209   -2.5518  -11.9057 C   0  0
    7.9053   -3.4615  -11.4107 C   0  0
    7.2640   -3.2138  -10.2115 C   0  0
    7.5389   -2.0568   -9.5067 C   0  0
    8.4510   -1.1449  -10.0040 C   0  0
    9.0955   -1.3946  -11.2011 C   0  0
    6.8398   -1.7868   -8.1993 C   0  0
    7.8128   -2.4863   -6.8375 S   0  0
    6.8760   -2.0927   -5.3981 C   0  0
    5.7276   -1.4422   -5.2805 N   0  0
    5.1856   -1.2434   -4.1592 N   0  0
    5.7293   -1.6717   -3.0317 C   0  0
    7.2073   -2.4510   -3.6753 S   0  0
    5.2826   -1.5467   -1.7185 N   0  0
    4.1260   -0.9055   -1.4582 C   0  0
    3.4742   -0.4374   -2.3677 O   0  0
    3.6427   -0.7703   -0.0373 C   0  0
    2.3368   -0.0184   -0.0203 C   0  0
    1.1498   -0.6863   -0.0126 C   0  0
    0.0021   -0.0041    0.0020 N   0  0
   -0.0156    1.3022    0.0092 C   0  0
    1.1237    2.0216    0.0022 N   0  0
    2.3178    1.3917   -0.0126 C   0  0
    3.3581    2.0287   -0.0186 O   0  0
   -1.3403    2.0206    0.0193 C   0  0
    1.1318   -2.1931   -0.0200 C   0  0
   10.5936   -2.7844  -12.9761 H   0  0
    9.2955   -1.9485  -13.8430 H   0  0
    9.2264   -3.7699  -13.6874 H   0  0
    7.6870   -4.3825  -11.9711 H   0  0
    6.5349   -3.9374   -9.8180 H   0  0
    8.6640   -0.2205   -9.4471 H   0  0
    9.8269   -0.6725  -11.5930 H   0  0
    6.7369   -0.7011   -8.0557 H   0  0
    5.8427   -2.2511   -8.2126 H   0  0
    5.8361   -1.9443   -0.9462 H   0  0
    3.4951   -1.7702    0.3967 H   0  0
    4.3893   -0.2203    0.5544 H   0  0
    1.0837    3.0508    0.0081 H   0  0
   -1.8715    1.6470    0.9072 H   0  0
   -1.8798    1.6567   -0.8676 H   0  0
   -1.2408    3.1161    0.0248 H   0  0
    1.7229   -2.4908    0.8586 H   0  0
    1.7064   -2.4819   -0.9124 H   0  0
    0.1203   -2.6252   -0.0127 H   0  0
  1  2  1  0
  2  7  2  0
  2  3  1  0
  3  4  2  0
  4  5  1  0
  5  6  2  0
  5  8  1  0
  6  7  1  0
  8  9  1  0
  9 10  1  0
 10 14  1  0
 10 11  2  0
 11 12  1  0
 12 13  2  0
 13 14  1  0
 13 15  1  0
 15 16  1  0
 16 17  2  0
 16 18  1  0
 18 19  1  0
 19 24  1  0
 19 20  2  0
 20 21  1  0
 20 27  1  0
 21 22  2  0
 22 23  1  0
 22 26  1  0
 23 24  1  0
 24 25  2  0
  1 28  1  0
  1 29  1  0
  1 30  1  0
  3 31  1  0
  4 32  1  0
  6 33  1  0
  7 34  1  0
  8 35  1  0
  8 36  1  0
 15 37  1  0
 18 38  1  0
 18 39  1  0
 23 40  1  0
 26 41  1  0
 26 42  1  0
 26 43  1  0
 27 44  1  0
 27 45  1  0
 27 46  1  0
M  END
> <Name>
ZINC31274196

> <reference>
BDB50048512

> <quality>
0.758

> <status>
decoy

$$$$
ZINC11278727
  SciTegic06061311253D

 50 52  0  0  1  0            999 V2000
   13.3021    1.5771    2.3979 C   0  0
   12.5403    2.6084    3.1899 C   0  0
   11.2050    2.8825    2.9159 C   0  0
   10.8732    4.1468    4.1348 S   0  0
   12.4510    4.1826    4.8593 C   0  0
   13.1115    3.2736    4.1558 N   0  0
   12.9372    5.0206    5.9763 C   0  0
   12.0734    5.9311    6.5853 C   0  0
   12.5423    6.7050    7.6329 C   0  0
   13.8626    6.5512    8.0309 C   0  0
   14.6659    5.6324    7.3788 C   0  0
   14.1944    4.9046    6.3882 N   0  0
   10.3183    2.3011    1.9049 C   0  0
   10.7356    1.4427    1.1512 O   0  0
    9.0389    2.7180    1.8099 O   0  0
    8.2180    2.0981    0.7851 C   0  0  2  0  0  0
    8.3314    2.8995   -0.5132 C   0  0
    6.7808    2.0761    1.2380 C   0  0
    6.4638    2.6173    2.2755 O   0  0
    5.8479    1.4548    0.4896 N   0  0
    4.5626    1.4351    0.8946 C   0  0
    4.2448    1.9777    1.9347 O   0  0
    3.6296    0.8138    0.1462 N   0  0
    2.2325    0.7924    0.5864 C   0  0  1  0  0  0
    1.4534    1.9953   -0.0011 C   0  0
   -0.0188    1.5345    0.0105 C   0  0
    0.0021   -0.0041    0.0020 C   0  0
    1.4862   -0.4246   -0.0144 C   0  0
   13.6786    0.8677    3.1495 H   0  0
   14.1723    2.1175    1.9969 H   0  0
   12.7080    1.0873    1.6123 H   0  0
   11.0346    6.0326    6.2380 H   0  0
   11.8829    7.4258    8.1385 H   0  0
   14.2670    7.1542    8.8573 H   0  0
   15.7129    5.5084    7.6924 H   0  0
    8.5636    1.0683    0.6116 H   0  0
    9.3801    2.9160   -0.8447 H   0  0
    7.9858    3.9295   -0.3409 H   0  0
    7.7097    2.4304   -1.2900 H   0  0
    6.1172    0.9950   -0.3919 H   0  0
    3.8989    0.3540   -0.7353 H   0  0
    2.2646    0.7867    1.6859 H   0  0
    1.5783    2.8782    0.6431 H   0  0
    1.7798    2.1913   -1.0331 H   0  0
   -0.5343    1.9052   -0.8878 H   0  0
   -0.5160    1.8956    0.9228 H   0  0
   -0.5018   -0.3805   -0.9004 H   0  0
   -0.4845   -0.3893    0.9102 H   0  0
    1.6347   -1.3114    0.6193 H   0  0
    1.8182   -0.5994   -1.0484 H   0  0
  1  2  1  0
  2  6  1  0
  2  3  2  0
  3  4  1  0
  3 13  1  0
  4  5  1  0
  5  6  2  0
  5  7  1  0
  7 12  2  0
  7  8  1  0
  8  9  2  0
  9 10  1  0
 10 11  2  0
 11 12  1  0
 13 14  2  0
 13 15  1  0
 15 16  1  0
 16 17  1  0
 16 18  1  0
 18 19  2  0
 18 20  1  0
 20 21  1  0
 21 22  2  0
 21 23  1  0
 23 24  1  0
 24 28  1  0
 24 25  1  0
 25 26  1  0
 26 27  1  0
 27 28  1  0
  1 29  1  0
  1 30  1  0
  1 31  1  0
  8 32  1  0
  9 33  1  0
 10 34  1  0
 11 35  1  0
 16 36  1  0
 17 37  1  0
 17 38  1  0
 17 39  1  0
 20 40  1  0
 23 41  1  0
 24 42  1  0
 25 43  1  0
 25 44  1  0
 26 45  1  0
 26 46  1  0
 27 47  1  0
 27 48  1  0
 28 49  1  0
 28 50  1  0
M  END
> <Name>
ZINC11278727

> <reference>
BDB50048512

> <quality>
0.755

> <status>
decoy

$$$$
ZINC14713166
  SciTegic06061311253D

 44 47  0  0  1  0            999 V2000
    1.8556   -4.2329    0.5949 C   0  0
    1.8163   -2.8849    0.8983 C   0  0
    1.5492   -1.9963   -0.0898 C   0  0
    1.3357   -3.0675   -1.5020 S   0  0
    1.6259   -4.6264   -0.6817 C   0  0
    1.4513   -0.4944   -0.0145 C   0  0  2  0  0  0
   -0.0093   -0.0696   -0.1792 C   0  0
   -0.0904    1.3924   -0.2257 N   0  0
   -1.3243    2.0160   -0.3776 C   0  0
   -2.4906    1.2334   -0.4859 C   0  0
   -3.7017    1.8319   -0.6351 C   0  0
   -3.7709    3.2375   -0.6788 C   0  0
   -4.7646    4.1017   -0.8115 N   0  0
   -4.2913    5.2988   -0.7903 N   0  0
   -2.9894    5.2673   -0.6451 C   0  0
   -2.6164    3.9722   -0.5700 N   0  0
   -1.3883    3.3265   -0.4128 N   0  0
   -2.0733    6.4619   -0.5753 C   0  0  1  0  0  0
   -2.8293    7.6164   -0.3454 F   0  0
   -1.1588    6.2878    0.4690 F   0  0
   -1.3816    6.5905   -1.7844 F   0  0
    2.2590    0.1033   -1.0861 N   0  0
    1.6696   -0.1700   -2.4049 C   0  0
    2.5075    0.5193   -3.4850 C   0  0
    3.8610    0.0667   -3.3925 O   0  0
    4.4663    0.3175   -2.1213 C   0  0
    3.6483   -0.3738   -1.0273 C   0  0
    2.0701   -4.9752    1.3778 H   0  0
    1.9990   -2.5385    1.9262 H   0  0
    1.6199   -5.6425   -1.1029 H   0  0
    1.8252   -0.1510    0.9614 H   0  0
   -0.5988   -0.4419    0.6716 H   0  0
   -0.4099   -0.4884   -1.1141 H   0  0
    0.7664    1.9585   -0.1459 H   0  0
   -2.4210    0.1362   -0.4497 H   0  0
   -4.6159    1.2261   -0.7206 H   0  0
    0.6407    0.2179   -2.4361 H   0  0
    1.6599   -1.2551   -2.5853 H   0  0
    2.1044    0.2697   -4.4776 H   0  0
    2.4744    1.6088   -3.3373 H   0  0
    5.4922   -0.0795   -2.1181 H   0  0
    4.4899    1.4008   -1.9318 H   0  0
    4.0773   -0.1354   -0.0429 H   0  0
    3.6710   -1.4622   -1.1853 H   0  0
  1  5  2  0
  1  2  1  0
  2  3  2  0
  3  4  1  0
  3  6  1  0
  4  5  1  0
  6  7  1  0
  6 22  1  0
  7  8  1  0
  8  9  1  0
  9 17  2  0
  9 10  1  0
 10 11  2  0
 11 12  1  0
 12 16  1  0
 12 13  2  0
 13 14  1  0
 14 15  2  0
 15 16  1  0
 15 18  1  0
 16 17  1  0
 18 19  1  0
 18 20  1  0
 18 21  1  0
 22 27  1  0
 22 23  1  0
 23 24  1  0
 24 25  1  0
 25 26  1  0
 26 27  1  0
  1 28  1  0
  2 29  1  0
  5 30  1  0
  6 31  1  0
  7 32  1  0
  7 33  1  0
  8 34  1  0
 10 35  1  0
 11 36  1  0
 23 37  1  0
 23 38  1  0
 24 39  1  0
 24 40  1  0
 26 41  1  0
 26 42  1  0
 27 43  1  0
 27 44  1  0
M  END
> <Name>
ZINC14713166

> <reference>
BDB50048512

> <quality>
0.752

> <status>
decoy

$$$$
ZINC21728665
  SciTegic06061311253D

 52 55  0  0  0  0            999 V2000
    7.0731   -0.4904   -1.0527 C   0  0
    6.1222   -0.9039   -0.0694 O   0  0
    4.9288   -0.2517   -0.0519 C   0  0
    4.6816    0.7637   -0.9629 C   0  0
    3.4719    1.4283   -0.9483 C   0  0
    2.4957    1.0793   -0.0165 C   0  0
    2.7454    0.0621    0.9033 C   0  0
    3.9575   -0.6047    0.8811 C   0  0
    4.2023   -1.6007    1.7741 O   0  0
    3.1610   -1.9100    2.7026 C   0  0
    1.1960    1.7931    0.0003 C   0  0
   -0.0126    1.0758    0.0080 C   0  0
   -1.1602    1.7154    0.0169 N   0  0
   -1.2128    3.0522    0.0300 C   0  0
   -2.2853    3.9523    0.0451 C   0  0
   -1.7435    5.2432    0.0469 C   0  0
   -0.4363    5.1535    0.0339 N   0  0
   -0.0672    3.8039    0.0231 N   0  0
    1.1533    3.1834    0.0081 C   0  0
    2.3148    3.9207    0.0015 N   0  0
   -3.7254    3.6036    0.0574 C   0  0
   -4.2319    2.6942   -0.8707 C   0  0
   -5.5726    2.3664   -0.8551 C   0  0
   -6.4205    2.9476    0.0751 C   0  0
   -5.9218    3.8601    1.0008 C   0  0
   -4.5778    4.1884    0.9933 C   0  0
   -6.7556    4.4284    1.9126 O   0  0
   -6.1759    5.3556    2.8325 C   0  0
   -7.7423    2.6259    0.0832 O   0  0
   -8.1864    1.6828   -0.8943 C   0  0
    7.2444    0.5832   -0.8850 H   0  0
    6.5785   -0.6047   -2.0285 H   0  0
    8.0112   -1.0627   -1.0045 H   0  0
    5.4510    1.0403   -1.6988 H   0  0
    3.2782    2.2336   -1.6722 H   0  0
    1.9803   -0.2099    1.6453 H   0  0
    2.2764   -2.1661    2.1011 H   0  0
    2.9425   -0.9777    3.2440 H   0  0
    3.4325   -2.7240    3.3908 H   0  0
    0.0023   -0.0241    0.0066 H   0  0
   -2.3207    6.1795    0.0575 H   0  0
    3.2236    3.4361   -0.0093 H   0  0
    2.2775    4.9500    0.0073 H   0  0
   -3.5629    2.2381   -1.6153 H   0  0
   -5.9691    1.6425   -1.5822 H   0  0
   -4.1825    4.9092    1.7241 H   0  0
   -5.7069    6.1428    2.2239 H   0  0
   -5.3756    4.8122    3.3562 H   0  0
   -6.9110    5.7720    3.5370 H   0  0
   -7.5868    0.7734   -0.7414 H   0  0
   -7.9174    2.1034   -1.8745 H   0  0
   -9.2641    1.4738   -0.8251 H   0  0
  1  2  1  0
  2  3  1  0
  3  8  2  0
  3  4  1  0
  4  5  2  0
  5  6  1  0
  6  7  2  0
  6 11  1  0
  7  8  1  0
  8  9  1  0
  9 10  1  0
 11 19  2  0
 11 12  1  0
 12 13  2  0
 13 14  1  0
 14 18  1  0
 14 15  2  0
 15 16  1  0
 15 21  1  0
 16 17  2  0
 17 18  1  0
 18 19  1  0
 19 20  1  0
 21 26  2  0
 21 22  1  0
 22 23  2  0
 23 24  1  0
 24 25  2  0
 24 29  1  0
 25 26  1  0
 25 27  1  0
 27 28  1  0
 29 30  1  0
  1 31  1  0
  1 32  1  0
  1 33  1  0
  4 34  1  0
  5 35  1  0
  7 36  1  0
 10 37  1  0
 10 38  1  0
 10 39  1  0
 12 40  1  0
 16 41  1  0
 20 42  1  0
 20 43  1  0
 22 44  1  0
 23 45  1  0
 26 46  1  0
 28 47  1  0
 28 48  1  0
 28 49  1  0
 30 50  1  0
 30 51  1  0
 30 52  1  0
M  END
> <Name>
ZINC21728665

> <reference>
BDB50048512

> <quality>
0.749

> <status>
decoy

$$$$
ZINC25245778
  SciTegic06061311253D

 49 51  0  0  1  0            999 V2000
   -1.9164    2.0721   -2.4632 C   0  0
   -2.6666    0.9872   -1.7342 C   0  0
   -4.0021    0.9132   -1.6107 C   0  0
   -4.2793   -0.2993   -0.8277 C   0  0
   -3.0438   -0.8606   -0.5498 C   0  0
   -2.0961   -0.0756   -1.0946 N   0  0
   -0.6553   -0.3292   -1.0174 C   0  0
   -0.0834    0.3525    0.2272 C   0  0  1  0  0  0
    1.4107   -0.0039    0.3820 C   0  0
    2.0218    1.3398    0.8647 C   0  0
    1.1365    2.3567    0.1011 C   0  0
   -0.1769    1.7751    0.0883 O   0  0
   -2.8027   -2.1278    0.2293 C   0  0
   -5.5506   -0.7954   -0.4407 C   0  0
   -6.6906   -0.3419   -1.0741 C   0  0
   -6.5824    0.5156   -2.2158 C   0  0
   -6.4966    1.1959   -3.1216 N   0  0
   -8.0150   -0.7393   -0.5765 C   0  0
   -8.1069   -1.4679    0.3936 O   0  0
   -9.1278   -0.2966   -1.1947 N   0  5
  -10.3904   -0.6755   -0.7203 N   0  0
  -11.5032   -0.2328   -1.3385 C   0  0
  -11.4113    0.4960   -2.3089 O   0  0
  -12.8243   -0.6292   -0.8422 C   0  0
  -14.0778   -0.2848   -1.3232 C   0  0
  -15.1644   -0.8041   -0.6647 C   0  0
  -14.9654   -1.6076    0.4129 C   0  0
  -13.2380   -1.6742    0.5433 S   0  0
   -1.3043    1.5061   -3.1809 H   0  0
   -1.2196    2.4442   -1.6977 H   0  0
   -2.5308    2.8587   -2.9256 H   0  0
   -4.7416    1.6199   -2.0153 H   0  0
   -0.4763   -1.4128   -0.9562 H   0  0
   -0.1623    0.0737   -1.9144 H   0  0
   -0.6547    0.0103    1.1027 H   0  0
    1.5412   -0.7801    1.1504 H   0  0
    1.8393   -0.2904   -0.5897 H   0  0
    3.0699    1.4247    0.5417 H   0  0
    1.8891    1.4545    1.9506 H   0  0
    1.1195    3.3168    0.6377 H   0  0
    1.5056    2.4788   -0.9279 H   0  0
   -3.4193   -2.8611   -0.3112 H   0  0
   -3.3309   -1.9312    1.1739 H   0  0
   -1.7535   -2.4325    0.3576 H   0  0
   -5.6283   -1.5414    0.3640 H   0  0
  -10.4682   -1.2924    0.1009 H   0  0
  -14.1966    0.3759   -2.1946 H   0  0
  -16.1844   -0.5725   -1.0053 H   0  0
  -15.7180   -2.0971    1.0485 H   0  0
  1  2  1  0
  2  6  1  0
  2  3  2  0
  3  4  1  0
  4  5  2  0
  4 14  1  0
  5  6  1  0
  5 13  1  0
  6  7  1  0
  7  8  1  0
  8 12  1  0
  8  9  1  0
  9 10  1  0
 10 11  1  0
 11 12  1  0
 14 15  2  0
 15 16  1  0
 15 18  1  0
 16 17  3  0
 18 19  2  0
 18 20  1  0
 20 21  1  0
 21 22  1  0
 22 23  2  0
 22 24  1  0
 24 28  1  0
 24 25  2  0
 25 26  1  0
 26 27  2  0
 27 28  1  0
  1 29  1  0
  1 30  1  0
  1 31  1  0
  3 32  1  0
  7 33  1  0
  7 34  1  0
  8 35  1  0
  9 36  1  0
  9 37  1  0
 10 38  1  0
 10 39  1  0
 11 40  1  0
 11 41  1  0
 13 42  1  0
 13 43  1  0
 13 44  1  0
 14 45  1  0
 21 46  1  0
 25 47  1  0
 26 48  1  0
 27 49  1  0
M  CHG  1  20  -1
M  END
> <Name>
ZINC25245778

> <reference>
BDB50048512

> <quality>
0.749

> <status>
decoy

$$$$
ZINC26893948
  SciTegic06061311253D

 50 52  0  0  0  0            999 V2000
    1.9818    2.9383    1.6577 C   0  0
    0.6768    3.1623    0.8911 C   0  0
    0.0940    1.8675    0.5302 N   0  0
   -1.4802    1.7804    0.0239 S   0  0
   -1.7345    0.4155   -0.2789 O   0  0
   -2.2520    2.5073    0.9700 O   0  0
   -1.5877    2.6623   -1.4977 C   0  0
   -1.8844    4.0129   -1.4928 C   0  0
   -1.9646    4.7082   -2.6834 C   0  0
   -1.7573    4.0470   -3.8872 C   0  0
   -1.4647    2.6893   -3.8889 C   0  0
   -1.3807    2.0011   -2.6945 C   0  0
   -1.8435    4.7468   -5.0949 N   0  0
   -1.4618    6.0380   -5.1543 C   0  0
   -0.9534    6.5669   -4.1847 O   0  0
   -1.6610    6.8103   -6.3967 C   0  0
   -2.2398    6.2025   -7.5138 C   0  0
   -2.4285    6.9274   -8.6695 C   0  0
   -2.0341    8.2595   -8.7290 C   0  0
   -1.4529    8.8662   -7.6209 C   0  0
   -1.2659    8.1490   -6.4601 C   0  0
   -2.2219    8.9907   -9.9060 N   0  0
   -2.1188    8.5096  -11.1722 C   0  0
   -2.3770    9.5313  -12.0206 C   0  0
   -2.6366   10.6735  -11.2546 C   0  0
   -2.5441   10.3515   -9.9899 N   0  0
   -2.9656   12.0414  -11.7946 C   0  0
   -1.7811    7.0934  -11.5613 C   0  0
    2.6892    2.3822    1.0249 H   0  0
    1.7770    2.3617    2.5718 H   0  0
    2.4199    3.9101    1.9290 H   0  0
    0.8816    3.7390   -0.0230 H   0  0
   -0.0300    3.7181    1.5247 H   0  0
    0.6634    1.0114    0.5914 H   0  0
   -2.0567    4.5341   -0.5396 H   0  0
   -2.1924    5.7843   -2.6783 H   0  0
   -1.3000    2.1627   -4.8405 H   0  0
   -1.1489    0.9258   -2.6951 H   0  0
   -2.1987    4.2754   -5.9390 H   0  0
   -2.5443    5.1464   -7.4702 H   0  0
   -2.8918    6.4520   -9.5466 H   0  0
   -1.1421    9.9202   -7.6715 H   0  0
   -0.8060    8.6295   -5.5839 H   0  0
   -2.3820    9.4743  -13.1191 H   0  0
   -3.8272   11.8393  -12.4478 H   0  0
   -2.1200   12.2415  -12.4690 H   0  0
   -3.1428   12.8328  -11.0514 H   0  0
   -2.5374    6.5095  -11.0163 H   0  0
   -0.8314    6.9211  -11.0338 H   0  0
   -1.7403    6.8785  -12.6393 H   0  0
  1  2  1  0
  2  3  1  0
  3  4  1  0
  4  5  2  0
  4  6  2  0
  4  7  1  0
  7 12  2  0
  7  8  1  0
  8  9  2  0
  9 10  1  0
 10 11  2  0
 10 13  1  0
 11 12  1  0
 13 14  1  0
 14 15  2  0
 14 16  1  0
 16 21  2  0
 16 17  1  0
 17 18  2  0
 18 19  1  0
 19 20  2  0
 19 22  1  0
 20 21  1  0
 22 26  1  0
 22 23  1  0
 23 24  2  0
 23 28  1  0
 24 25  1  0
 25 26  2  0
 25 27  1  0
  1 29  1  0
  1 30  1  0
  1 31  1  0
  2 32  1  0
  2 33  1  0
  3 34  1  0
  8 35  1  0
  9 36  1  0
 11 37  1  0
 12 38  1  0
 13 39  1  0
 17 40  1  0
 18 41  1  0
 20 42  1  0
 21 43  1  0
 24 44  1  0
 27 45  1  0
 27 46  1  0
 27 47  1  0
 28 48  1  0
 28 49  1  0
 28 50  1  0
M  END
> <Name>
ZINC26893948

> <reference>
BDB50048512

> <quality>
0.747

> <status>
decoy

$$$$
ZINC19542051
  SciTegic06061311253D

 47 50  0  0  1  0            999 V2000
   11.8143   -4.3603   -2.1639 C   0  0
   10.4058   -3.8398   -2.2916 C   0  0
    9.7710   -3.2617   -1.1906 C   0  0
   10.2827   -3.0569    0.1838 C   0  0
   11.4070   -3.4110    0.4912 O   0  0
    9.4743   -2.4642    1.0842 N   0  0
    8.2195   -2.0708    0.7545 C   0  0
    7.7378   -2.2358   -0.4474 N   0  0
    8.4515   -2.8040   -1.4109 C   0  0
    8.1635   -3.1960   -3.1180 S   0  0
    9.7476   -3.9325   -3.4838 C   0  0
   10.2232   -4.4961   -4.7490 C   0  0
   11.3441   -4.9622   -4.8240 O   0  0
    9.4180   -4.4985   -5.8314 O   0  0
    9.9554   -5.0733   -7.0516 C   0  0
    7.3579   -1.4183    1.8047 C   0  0
    6.0537   -1.0737    1.2232 N   0  0
    6.1943   -0.0363    0.1926 C   0  0
    5.1066   -0.6554    2.2653 C   0  0
    3.7246   -0.5476    1.6742 C   0  0
    2.8855   -1.6464    1.6768 C   0  0
    1.6171   -1.5526    1.1353 C   0  0
    1.1834   -0.3557    0.5885 C   0  0
    2.0284    0.7513    0.5864 C   0  0
    3.2983    0.6500    1.1309 C   0  0
    1.3764    1.7966   -0.0014 O   0  0
   -0.0175    1.4357    0.0099 C   0  0
    0.0021   -0.0041    0.0020 O   0  0
   12.3868   -3.8289   -2.9384 H   0  0
   11.7576   -5.4160   -2.4676 H   0  0
   12.2458   -4.2336   -1.1600 H   0  0
    9.8167   -2.3068    2.0428 H   0  0
   10.2426   -6.1066   -6.8070 H   0  0
   10.8737   -4.5124   -7.2800 H   0  0
    9.2408   -5.0383   -7.8872 H   0  0
    7.2122   -2.1143    2.6439 H   0  0
    7.8498   -0.5039    2.1678 H   0  0
    6.8620   -0.4090   -0.5981 H   0  0
    6.6413    0.8594    0.6486 H   0  0
    5.2109    0.2114   -0.2335 H   0  0
    5.1011   -1.3990    3.0759 H   0  0
    5.4101    0.3226    2.6670 H   0  0
    3.2280   -2.5974    2.1107 H   0  0
    0.9518   -2.4286    1.1385 H   0  0
    3.9677    1.5229    1.1309 H   0  0
   -0.5166    1.8135   -0.8946 H   0  0
   -0.4984    1.8039    0.9282 H   0  0
  1  2  1  0
  2 11  2  0
  2  3  1  0
  3  9  2  0
  3  4  1  0
  4  5  2  0
  4  6  1  0
  6  7  1  0
  7  8  2  0
  7 16  1  0
  8  9  1  0
  9 10  1  0
 10 11  1  0
 11 12  1  0
 12 13  2  0
 12 14  1  0
 14 15  1  0
 16 17  1  0
 17 18  1  0
 17 19  1  0
 19 20  1  0
 20 25  2  0
 20 21  1  0
 21 22  2  0
 22 23  1  0
 23 28  1  0
 23 24  2  0
 24 25  1  0
 24 26  1  0
 26 27  1  0
 27 28  1  0
  1 29  1  0
  1 30  1  0
  1 31  1  0
  6 32  1  0
 15 33  1  0
 15 34  1  0
 15 35  1  0
 16 36  1  0
 16 37  1  0
 18 38  1  0
 18 39  1  0
 18 40  1  0
 19 41  1  0
 19 42  1  0
 21 43  1  0
 22 44  1  0
 25 45  1  0
 27 46  1  0
 27 47  1  0
M  END
> <Name>
ZINC19542051

> <reference>
BDB50048512

> <quality>
0.746

> <status>
decoy

$$$$
ZINC23668926
  SciTegic06061311253D

 44 46  0  0  0  0            999 V2000
    0.6953    3.6530   -0.6975 C   0  0
   -0.4759    2.3359   -0.2683 S   0  0
   -1.5959    2.3730   -1.1420 O   0  0
    0.2200    1.1194   -0.0338 O   0  0
   -1.0799    2.7692    1.2115 N   0  0
   -0.2262    2.8887    2.3034 C   0  0
    0.7120    1.8931    2.5634 C   0  0
    1.5585    2.0092    3.6355 C   0  0
    1.4712    3.1257    4.4762 C   0  0
    0.5227    4.1220    4.2142 C   0  0
   -0.3161    4.0007    3.1366 C   0  0
    2.3718    3.2512    5.6301 C   0  0
    3.2860    2.2891    5.8811 C   0  0
    4.1820    2.4140    7.0290 C   0  0
    4.1043    3.3851    7.7590 O   0  0
    5.0942    1.4540    7.2794 N   0  0
    6.0215    1.6236    8.3097 C   0  0
    6.5065    2.8929    8.6046 C   0  0
    7.4172    3.0643    9.6244 C   0  0
    7.8620    1.9601   10.3540 C   0  0
    7.3774    0.6860   10.0517 C   0  0
    6.4622    0.5220    9.0348 C   0  0
    8.8441    2.1395   11.4438 C   0  0
    9.4200    3.2500   11.8832 N   0  0
   10.2800    3.2249   12.8748 C   0  0
   10.5936    2.0439   13.4698 C   0  0
    9.5697    0.9184   12.5298 S   0  0
    0.1935    4.6278   -0.6081 H   0  0
    1.0351    3.5125   -1.7342 H   0  0
    1.5590    3.6179   -0.0172 H   0  0
   -2.0877    2.9502    1.3235 H   0  0
    0.7740    1.0122    1.9076 H   0  0
    2.3052    1.2265    3.8350 H   0  0
    0.4507    5.0007    4.8721 H   0  0
   -1.0613    4.7830    2.9299 H   0  0
    2.3016    4.1287    6.2897 H   0  0
    3.3562    1.4116    5.2216 H   0  0
    5.1074    0.5952    6.7108 H   0  0
    6.1628    3.7612    8.0232 H   0  0
    7.7934    4.0700    9.8634 H   0  0
    7.7259   -0.1859   10.6247 H   0  0
    6.0798   -0.4814    8.7963 H   0  0
   10.7460    4.1583   13.2235 H   0  0
   11.2855    1.8375   14.2996 H   0  0
  1  2  1  0
  2  3  2  0
  2  4  2  0
  2  5  1  0
  5  6  1  0
  6 11  2  0
  6  7  1  0
  7  8  2  0
  8  9  1  0
  9 10  2  0
  9 12  1  0
 10 11  1  0
 12 13  2  0
 13 14  1  0
 14 15  2  0
 14 16  1  0
 16 17  1  0
 17 22  2  0
 17 18  1  0
 18 19  2  0
 19 20  1  0
 20 21  2  0
 20 23  1  0
 21 22  1  0
 23 27  1  0
 23 24  2  0
 24 25  1  0
 25 26  2  0
 26 27  1  0
  1 28  1  0
  1 29  1  0
  1 30  1  0
  5 31  1  0
  7 32  1  0
  8 33  1  0
 10 34  1  0
 11 35  1  0
 12 36  1  0
 13 37  1  0
 16 38  1  0
 18 39  1  0
 19 40  1  0
 21 41  1  0
 22 42  1  0
 25 43  1  0
 26 44  1  0
M  END
> <Name>
ZINC23668926

> <reference>
BDB50048512

> <quality>
0.738

> <status>
decoy

$$$$
ZINC27545425
  SciTegic06061311253D

 62 64  0  0  1  0            999 V2000
  -11.3244    1.3925   -2.6760 C   0  0
  -10.8156    2.4080   -1.6855 C   0  0
   -9.5241    2.8887   -1.7783 C   0  0
   -9.0958    3.8240   -0.8343 C   0  0
   -9.9456    4.2230    0.1077 N   0  0
  -11.1711    3.7418    0.1552 C   0  0
  -11.6037    2.8542   -0.7176 N   0  0
  -12.1041    4.2192    1.2381 C   0  0  1  0  0  0
  -13.3307    4.8757    0.6016 C   0  0
  -12.5476    3.0286    2.0906 C   0  0
   -7.8079    4.3326   -0.8815 N   0  0
   -7.5840    5.3008    0.2010 C   0  0
   -6.1807    5.8968    0.0666 C   0  0
   -5.1857    4.8164    0.1161 N   0  0
   -5.4096    3.8482   -0.9665 C   0  0
   -6.8129    3.2522   -0.8321 C   0  0
   -3.8202    5.3557    0.0660 C   0  0  1  0  0  0
   -3.7176    6.3801   -1.0658 C   0  0
   -3.4948    6.0221    1.3778 C   0  0
   -4.3831    6.2873    2.1601 O   0  0
   -2.2169    6.3235    1.6819 N   0  0
   -1.9157    6.9403    2.8960 C   0  0
   -2.8068    7.2866    3.8649 C   0  0
   -2.0933    7.8794    4.9103 C   0  0
   -0.8241    7.8829    4.5920 N   0  0
   -0.6844    7.2968    3.3276 N   0  0
    0.5729    7.1048    2.6006 C   0  0  1  0  0  0
    1.2345    8.4629    2.3583 C   0  0
    1.5099    6.2212    3.4267 C   0  0
  -12.2194    1.8518   -3.1211 H   0  0
  -11.6632    0.5429   -2.0649 H   0  0
  -10.5814    1.0983   -3.4319 H   0  0
   -8.8499    2.5433   -2.5759 H   0  0
  -11.5844    4.9516    1.8733 H   0  0
  -13.8513    4.1440   -0.0336 H   0  0
  -13.0129    5.7320   -0.0114 H   0  0
  -14.0122    5.2244    1.3915 H   0  0
  -11.6664    2.5560    2.5489 H   0  0
  -13.0677    2.2957    1.4563 H   0  0
  -13.2287    3.3764    2.8813 H   0  0
   -8.3315    6.1051    0.1346 H   0  0
   -7.6749    4.7938    1.1729 H   0  0
   -5.9989    6.6002    0.8926 H   0  0
   -6.0978    6.4276   -0.8933 H   0  0
   -4.6623    3.0437   -0.9012 H   0  0
   -5.3188    4.3562   -1.9379 H   0  0
   -6.9924    2.5484   -1.6582 H   0  0
   -6.8950    2.7211    0.1277 H   0  0
   -3.1089    4.5365   -0.1154 H   0  0
   -4.4284    7.1999   -0.8853 H   0  0
   -3.9546    5.8944   -2.0239 H   0  0
   -2.6953    6.7843   -1.1039 H   0  0
   -1.4626    6.0983    1.0176 H   0  0
   -3.8948    7.1281    3.8311 H   0  0
   -2.5249    8.2753    5.8414 H   0  0
    0.3677    6.6194    1.6350 H   0  0
    1.4403    8.9490    3.3234 H   0  0
    0.5617    9.0989    1.7642 H   0  0
    2.1787    8.3194    1.8124 H   0  0
    1.0353    5.2443    3.6013 H   0  0
    1.7159    6.7059    4.3924 H   0  0
    2.4542    6.0766    2.8814 H   0  0
  1  2  1  0
  2  7  2  0
  2  3  1  0
  3  4  2  0
  4  5  1  0
  4 11  1  0
  5  6  2  0
  6  7  1  0
  6  8  1  0
  8  9  1  0
  8 10  1  0
 11 16  1  0
 11 12  1  0
 12 13  1  0
 13 14  1  0
 14 15  1  0
 14 17  1  0
 15 16  1  0
 17 18  1  0
 17 19  1  0
 19 20  2  0
 19 21  1  0
 21 22  1  0
 22 26  1  0
 22 23  2  0
 23 24  1  0
 24 25  2  0
 25 26  1  0
 26 27  1  0
 27 28  1  0
 27 29  1  0
  1 30  1  0
  1 31  1  0
  1 32  1  0
  3 33  1  0
  8 34  1  0
  9 35  1  0
  9 36  1  0
  9 37  1  0
 10 38  1  0
 10 39  1  0
 10 40  1  0
 12 41  1  0
 12 42  1  0
 13 43  1  0
 13 44  1  0
 15 45  1  0
 15 46  1  0
 16 47  1  0
 16 48  1  0
 17 49  1  0
 18 50  1  0
 18 51  1  0
 18 52  1  0
 21 53  1  0
 23 54  1  0
 24 55  1  0
 27 56  1  0
 28 57  1  0
 28 58  1  0
 28 59  1  0
 29 60  1  0
 29 61  1  0
 29 62  1  0
M  END
> <Name>
ZINC27545425

> <reference>
BDB50048512

> <quality>
0.738

> <status>
decoy

$$$$
ZINC27101626
  SciTegic06061311253D

 52 55  0  0  0  0            999 V2000
   -0.0922    2.1328    2.2779 C   0  0
   -0.9911    2.5493    3.3078 O   0  0
   -2.2609    2.0658    3.2517 C   0  0
   -2.6300    1.2128    2.2308 C   0  0
   -3.9387    0.7166    2.1766 C   0  0
   -4.8653    1.0888    3.1587 C   0  0
   -4.4877    1.9403    4.1732 C   0  0
   -3.1882    2.4273    4.2287 C   0  0
   -2.8206    3.2622    5.2350 O   0  0
   -4.3377   -0.1911    1.0942 C   0  0
   -5.5734   -0.7536    1.1008 C   0  0
   -6.0795   -1.7493    0.1451 C   0  0
   -5.4921   -2.2372   -0.8050 O   0  0
   -7.4568   -2.0247    0.5928 C   0  0
   -8.4643   -2.8658    0.1185 C   0  0
   -9.6705   -2.9112    0.7581 C   0  0
   -9.8973   -2.1187    1.8803 C   0  0
   -8.9067   -1.2785    2.3616 C   0  0
   -7.6735   -1.2214    1.7236 C   0  0
   -6.5613   -0.5037    1.9923 O   0  0
  -11.0996   -2.1702    2.5084 O   0  0
  -12.0790   -3.0563    1.9630 C   0  0
  -13.3587   -2.9782    2.7980 C   0  0
  -13.9253   -1.6264    2.7005 N   0  0
  -14.8464   -1.3595    3.8149 C   0  0
  -15.3661    0.0765    3.7075 C   0  0
  -15.9904    0.2582    2.4337 O   0  0
  -15.1216    0.0072    1.3257 C   0  0
  -14.5993   -1.4295    1.4090 C   0  0
   -0.5553    2.4285    1.3250 H   0  0
   -0.0679    1.0337    2.3145 H   0  0
    0.9134    2.5642    2.3907 H   0  0
   -1.8983    0.9236    1.4620 H   0  0
   -5.8940    0.7013    3.1198 H   0  0
   -5.2173    2.2355    4.9416 H   0  0
   -2.4816    4.0746    4.7820 H   0  0
   -3.6356   -0.4156    0.2777 H   0  0
   -8.2874   -3.4912   -0.7690 H   0  0
  -10.4644   -3.5753    0.3858 H   0  0
   -9.0962   -0.6565    3.2488 H   0  0
  -11.6933   -4.0863    1.9801 H   0  0
  -12.3003   -2.7648    0.9257 H   0  0
  -13.1260   -3.2025    3.8495 H   0  0
  -14.0885   -3.7092    2.4200 H   0  0
  -14.3157   -1.4866    4.7700 H   0  0
  -15.6930   -2.0603    3.7677 H   0  0
  -16.1001    0.2621    4.5055 H   0  0
  -14.5268    0.7804    3.8081 H   0  0
  -15.6768    0.1415    0.3856 H   0  0
  -14.2739    0.7075    1.3562 H   0  0
  -13.8857   -1.6081    0.5912 H   0  0
  -15.4419   -2.1313    1.3225 H   0  0
  1  2  1  0
  2  3  1  0
  3  8  2  0
  3  4  1  0
  4  5  2  0
  5  6  1  0
  5 10  1  0
  6  7  2  0
  7  8  1  0
  8  9  1  0
 10 11  2  0
 11 20  1  0
 11 12  1  0
 12 13  2  0
 12 14  1  0
 14 19  2  0
 14 15  1  0
 15 16  2  0
 16 17  1  0
 17 18  2  0
 17 21  1  0
 18 19  1  0
 19 20  1  0
 21 22  1  0
 22 23  1  0
 23 24  1  0
 24 29  1  0
 24 25  1  0
 25 26  1  0
 26 27  1  0
 27 28  1  0
 28 29  1  0
  1 30  1  0
  1 31  1  0
  1 32  1  0
  4 33  1  0
  6 34  1  0
  7 35  1  0
  9 36  1  0
 10 37  1  0
 15 38  1  0
 16 39  1  0
 18 40  1  0
 22 41  1  0
 22 42  1  0
 23 43  1  0
 23 44  1  0
 25 45  1  0
 25 46  1  0
 26 47  1  0
 26 48  1  0
 28 49  1  0
 28 50  1  0
 29 51  1  0
 29 52  1  0
M  END
> <Name>
ZINC27101626

> <reference>
BDB50048512

> <quality>
0.736

> <status>
decoy

$$$$
ZINC15418730
  SciTegic06061311253D

 41 43  0  0  0  0            999 V2000
    2.1429    5.8061   13.0523 C   0  0
    1.3200    6.3314   14.0328 C   0  0
   -0.0409    6.4528   13.7899 C   0  0
   -0.5499    6.0531   12.5888 C   0  0
    0.2569    5.5117   11.5785 C   0  0
    1.6315    5.4017   11.8398 C   0  0
   -0.5175    5.1616   10.3780 C   0  0
   -1.7967    5.3636   10.3690 N   0  0
   -2.1661    6.0218   11.8628 S   0  0
   -2.5733    7.3671   11.6544 O   0  0
   -2.9434    5.0693   12.5754 O   0  0
    0.1100    4.6197    9.2776 N   0  0
   -0.6702    4.2690    8.0882 C   0  0
    0.2603    3.6911    7.0200 C   0  0
   -0.5422    3.3303    5.7966 C   0  0
   -1.7405    3.5170    5.7806 O   0  0
    0.0716    2.8002    4.7202 N   0  0
   -0.6556    2.5551    3.5502 C   0  0
   -1.9806    2.1458    3.6272 C   0  0
   -2.6958    1.9051    2.4707 C   0  0
   -2.0955    2.0763    1.2365 C   0  0
   -0.7752    2.4785    1.1565 C   0  0
   -0.0543    2.7209    2.3096 C   0  0
   -0.1235    2.6587   -0.1904 C   0  0  2  0  0  0
    0.4688    1.4549   -0.5866 F   0  0
    0.8555    3.6544   -0.1052 F   0  0
   -1.0900    3.0342   -1.1296 F   0  0
    3.2217    5.7102   13.2445 H   0  0
    1.7413    6.6504   14.9975 H   0  0
   -0.7055    6.8689   14.5614 H   0  0
    2.3034    4.9904   11.0721 H   0  0
    1.1276    4.4611    9.2912 H   0  0
   -1.4302    3.5201    8.3557 H   0  0
   -1.1650    5.1690    7.6943 H   0  0
    0.7552    2.7902    7.4117 H   0  0
    1.0203    4.4397    6.7517 H   0  0
    1.0760    2.5755    4.7588 H   0  0
   -2.4598    2.0135    4.6085 H   0  0
   -3.7440    1.5769    2.5311 H   0  0
   -2.6698    1.8921    0.3166 H   0  0
    0.9949    3.0449    2.2451 H   0  0
  1  6  2  0
  1  2  1  0
  2  3  2  0
  3  4  1  0
  4  9  1  0
  4  5  2  0
  5  6  1  0
  5  7  1  0
  7  8  2  0
  7 12  1  0
  8  9  1  0
  9 10  2  0
  9 11  2  0
 12 13  1  0
 13 14  1  0
 14 15  1  0
 15 16  2  0
 15 17  1  0
 17 18  1  0
 18 23  2  0
 18 19  1  0
 19 20  2  0
 20 21  1  0
 21 22  2  0
 22 23  1  0
 22 24  1  0
 24 25  1  0
 24 26  1  0
 24 27  1  0
  1 28  1  0
  2 29  1  0
  3 30  1  0
  6 31  1  0
 12 32  1  0
 13 33  1  0
 13 34  1  0
 14 35  1  0
 14 36  1  0
 17 37  1  0
 19 38  1  0
 20 39  1  0
 21 40  1  0
 23 41  1  0
M  END
> <Name>
ZINC15418730

> <reference>
BDB50048512

> <quality>
0.735

> <status>
decoy

$$$$
ZINC09773599
  SciTegic06061311253D

 40 41  0  0  1  0            999 V2000
    0.6791    0.6550    0.3822 C   0  0
   -0.6114    1.3863    0.0071 C   0  0  1  0  0  0
   -1.6096    0.3968   -0.5367 C   0  0
   -2.5437   -0.1760    0.3058 C   0  0
   -3.4633   -1.0791   -0.1925 C   0  0
   -3.4426   -1.4198   -1.5347 C   0  0
   -2.5042   -0.8512   -2.3782 C   0  0
   -1.5870    0.0577   -1.8789 C   0  0
   -0.6700    0.6132   -2.7009 F   0  0
   -4.3386   -2.3067   -2.0208 F   0  0
   -1.1671    2.0373    1.1960 N   0  0
   -1.4447    3.3566    1.1745 C   0  0
   -1.9690    3.9708    2.2963 C   0  5
   -2.0881    3.2561    3.5799 C   0  0
   -1.7263    2.0993    3.6868 O   0  0
   -2.6041    3.9209    4.6342 N   0  0
   -3.0122    5.1932    4.5286 C   0  0
   -3.6621    5.9538    5.9179 S   0  0
   -2.9390    5.9016    3.3931 N   0  0
   -2.4391    5.3674    2.2597 C   0  0
   -2.3775    6.0208    1.2352 O   0  0
   -1.1834    4.1615   -0.0725 C   0  0  2  0  0  0
   -2.3392    3.9999   -1.0260 C   0  0
   -2.7610    2.8972   -1.2825 O   0  0
   -2.8999    5.0811   -1.5901 O   0  0
   -4.0090    4.8503   -2.4985 C   0  0
   -0.0088    3.7082   -0.6825 F   0  0
    1.0973    0.1661   -0.5100 H   0  0
    0.4622   -0.1043    1.1479 H   0  0
    1.4082    1.3767    0.7792 H   0  0
   -0.3934    2.1455   -0.7584 H   0  0
   -2.5551    0.0872    1.3738 H   0  0
   -4.2120   -1.5275    0.4771 H   0  0
   -2.4871   -1.1212   -3.4444 H   0  0
   -2.6864    3.4397    5.5412 H   0  0
   -3.2721    6.8762    3.3857 H   0  0
   -1.0726    5.2232    0.1929 H   0  0
   -4.7702    4.3009   -1.9251 H   0  0
   -3.6308    4.1818   -3.2860 H   0  0
   -4.4134    5.7830   -2.9187 H   0  0
  1  2  1  0
  2  3  1  0
  2 11  1  0
  3  8  2  0
  3  4  1  0
  4  5  2  0
  5  6  1  0
  6  7  2  0
  6 10  1  0
  7  8  1  0
  8  9  1  0
 11 12  2  0
 12 13  1  0
 12 22  1  0
 13 20  1  0
 13 14  1  0
 14 15  2  0
 14 16  1  0
 16 17  1  0
 17 18  2  0
 17 19  1  0
 19 20  1  0
 20 21  2  0
 22 23  1  0
 22 27  1  0
 23 24  2  0
 23 25  1  0
 25 26  1  0
  1 28  1  0
  1 29  1  0
  1 30  1  0
  2 31  1  0
  4 32  1  0
  5 33  1  0
  7 34  1  0
 16 35  1  0
 19 36  1  0
 22 37  1  0
 26 38  1  0
 26 39  1  0
 26 40  1  0
M  CHG  1  13  -1
M  END
> <Name>
ZINC09773599

> <reference>
BDB50073118

> <quality>
0.836

> <status>
decoy

$$$$
ZINC04696890
  SciTegic06061311253D

 47 49  0  0  0  0            999 V2000
    2.2651    6.5610   -3.2265 C   0  0
    1.9542    6.1693   -1.8049 C   0  0
    2.1318    4.9305   -1.4121 C   0  0
    1.8210    4.5389    0.0095 C   0  0
    0.8762    3.4192    0.0121 N   0  0
    1.1931    2.0683    0.0018 C   0  0
    2.3959    1.3395   -0.0141 C   0  0
    3.4675    1.9199   -0.0212 O   0  0
    2.3509   -0.0088   -0.0204 N   0  0
    1.1764   -0.6625   -0.0123 C   0  0
    1.1744   -1.8785   -0.0184 O   0  0
    0.0021   -0.0041    0.0020 N   0  0
   -0.0167    1.3817    0.0096 C   0  0
   -0.9942    2.2885    0.0186 N   0  0
   -0.4815    3.5028    0.0255 C   0  0
   -1.2064    4.6723    0.0383 N   0  0
   -2.6067    4.6284    0.0515 N   0  0
   -3.2906    5.7318    0.0636 C   0  0
   -4.7640    5.6856    0.0774 C   0  0
   -5.4267    4.4553    0.0718 C   0  0
   -6.8042    4.4170    0.0902 C   0  0
   -7.5338    5.5988    0.1031 C   0  0
   -6.8795    6.8239    0.1034 C   0  0
   -5.5023    6.8720    0.0904 C   0  0
   -8.8917    5.5562    0.1151 O   0  0
   -9.5003    4.2633    0.1140 C   0  0
   -1.2569   -0.7531    0.0100 C   0  0
    1.3610    7.3577   -0.6871 Cl  0  0
    1.6533    5.8930   -3.8506 H   0  0
    3.3178    6.2810   -3.3796 H   0  0
    2.0783    7.6235   -3.4415 H   0  0
    2.5076    4.1774   -2.1204 H   0  0
    2.7485    4.2366    0.5178 H   0  0
    1.3756    5.3948    0.5377 H   0  0
    3.2299   -0.5455   -0.0316 H   0  0
   -0.7196    5.5800    0.0382 H   0  0
   -2.7707    6.7012    0.0636 H   0  0
   -4.8498    3.5189    0.0527 H   0  0
   -7.3266    3.4490    0.0947 H   0  0
   -7.4615    7.7573    0.1140 H   0  0
   -4.9850    7.8428    0.0903 H   0  0
   -9.1092    3.7366    0.9970 H   0  0
   -9.1252    3.7457   -0.7812 H   0  0
  -10.5992    4.3104    0.1241 H   0  0
   -1.1957   -1.4077    0.8919 H   0  0
   -1.2123   -1.3988   -0.8794 H   0  0
   -2.1538   -0.1164    0.0216 H   0  0
  1  2  1  0
  2  3  2  0
  2 28  1  0
  3  4  1  0
  4  5  1  0
  5 15  1  0
  5  6  1  0
  6 13  2  0
  6  7  1  0
  7  8  2  0
  7  9  1  0
  9 10  1  0
 10 11  2  0
 10 12  1  0
 12 13  1  0
 12 27  1  0
 13 14  1  0
 14 15  2  0
 15 16  1  0
 16 17  1  0
 17 18  2  0
 18 19  1  0
 19 24  2  0
 19 20  1  0
 20 21  2  0
 21 22  1  0
 22 23  2  0
 22 25  1  0
 23 24  1  0
 25 26  1  0
  1 29  1  0
  1 30  1  0
  1 31  1  0
  3 32  1  0
  4 33  1  0
  4 34  1  0
  9 35  1  0
 16 36  1  0
 18 37  1  0
 20 38  1  0
 21 39  1  0
 23 40  1  0
 24 41  1  0
 26 42  1  0
 26 43  1  0
 26 44  1  0
 27 45  1  0
 27 46  1  0
 27 47  1  0
M  END
> <Name>
ZINC04696890

> <reference>
BDB50073118

> <quality>
0.797

> <status>
decoy

$$$$
ZINC29590808
  SciTegic06061311253D

 35 37  0  0  0  0            999 V2000
    5.5133  -15.1554   -2.3041 C   0  0
    5.1490  -14.1141   -3.2681 N   0  0
    4.7567  -12.8584   -2.8195 C   0  0
    4.6473  -12.4088   -1.5848 N   0  0
    4.2364  -11.1151   -1.3609 N   0  0
    3.9536  -10.3303   -2.3829 C   0  0
    4.2596  -11.4243   -3.7614 S   0  0
    3.4116   -8.6537   -2.3868 S   0  0
    3.3215   -8.2175   -0.6284 C   0  0
    2.8637   -6.7886   -0.4881 C   0  0
    1.6381   -6.3051   -0.3823 N   0  0
    1.4137   -5.0679   -0.2702 N   0  0
    2.4235   -4.2022   -0.2555 C   0  0
    3.8040   -5.3268   -0.4284 S   0  0
    2.4089   -2.7343   -0.1370 C   0  0
    3.4545   -2.1132   -0.1443 O   0  0
    1.2368   -2.0793   -0.0205 N   0  0
    1.2143   -0.6808   -0.0190 C   0  0
    2.1369    0.0306   -0.7752 C   0  0
    2.1122    1.4114   -0.7723 C   0  0
    1.1692    2.0863   -0.0169 C   0  0
    0.2488    1.3799    0.7375 C   0  0
    0.2691   -0.0010    0.7382 C   0  0
    1.1409    3.8220   -0.0156 Cl  0  0
    4.6351  -15.2577   -1.6497 H   0  0
    6.3188  -14.7141   -1.6988 H   0  0
    5.8080  -16.1098   -2.7649 H   0  0
    5.1836  -14.3125   -4.2782 H   0  0
    2.6066   -8.8825   -0.1217 H   0  0
    4.3152   -8.3301   -0.1702 H   0  0
    0.3576   -2.6086    0.0674 H   0  0
    2.8866   -0.5053   -1.3759 H   0  0
    2.8427    1.9753   -1.3709 H   0  0
   -0.4996    1.9188    1.3371 H   0  0
   -0.4627   -0.5620    1.3380 H   0  0
  1  2  1  0
  2  3  1  0
  3  7  1  0
  3  4  2  0
  4  5  1  0
  5  6  2  0
  6  7  1  0
  6  8  1  0
  8  9  1  0
  9 10  1  0
 10 14  1  0
 10 11  2  0
 11 12  1  0
 12 13  2  0
 13 14  1  0
 13 15  1  0
 15 16  2  0
 15 17  1  0
 17 18  1  0
 18 23  2  0
 18 19  1  0
 19 20  2  0
 20 21  1  0
 21 22  2  0
 21 24  1  0
 22 23  1  0
  1 25  1  0
  1 26  1  0
  1 27  1  0
  2 28  1  0
  9 29  1  0
  9 30  1  0
 17 31  1  0
 19 32  1  0
 20 33  1  0
 22 34  1  0
 23 35  1  0
M  END
> <Name>
ZINC29590808

> <reference>
BDB50073118

> <quality>
0.764

> <status>
decoy

$$$$
ZINC26218196
  SciTegic06061311253D

 39 40  0  0  0  0            999 V2000
  -12.8015   -6.3956   -0.9890 C   0  0
  -11.4792   -5.6260   -0.9744 C   0  0
  -11.6691   -4.3649   -0.3296 O   0  0
  -10.5861   -3.5536   -0.2324 C   0  0
  -10.7037   -2.3121    0.3842 C   0  0
   -9.6171   -1.4903    0.4843 C   0  0
   -8.3810   -1.9008   -0.0356 C   0  0
   -8.2699   -3.1515   -0.6603 C   0  0
   -9.3626   -3.9664   -0.7501 C   0  0
   -7.2123   -1.0244    0.0681 C   0  0
   -5.9483   -1.5677    0.1423 C   0  0
   -5.7842   -2.9849    0.2653 C   0  0
   -5.6539   -4.1092    0.3630 N   0  0
   -4.7672   -0.6916    0.0950 C   0  0
   -4.9067    0.5123   -0.0095 O   0  0
   -3.5307   -1.2230    0.1676 N   0  5
   -2.4061   -0.3888    0.1226 N   0  0
   -1.1696   -0.9202    0.1952 C   0  0
   -1.0301   -2.1246    0.2998 O   0  0
    0.0079   -0.0469    0.1481 C   0  0
    1.3248   -0.4504    0.2122 C   0  0
    2.1125    0.7028    0.1331 C   0  0
    1.2809    1.7672    0.0244 C   0  0
   -0.0008    1.3247    0.0324 N   0  0
    4.0020    0.7654    0.1716 Br  0  0
  -13.5588   -5.8151   -1.5363 H   0  0
  -13.1425   -6.5603    0.0438 H   0  0
  -12.6560   -7.3665   -1.4852 H   0  0
  -10.7227   -6.2071   -0.4267 H   0  0
  -11.1381   -5.4613   -2.0071 H   0  0
  -11.6737   -1.9915    0.7920 H   0  0
   -9.7115   -0.5087    0.9716 H   0  0
   -7.3049   -3.4756   -1.0771 H   0  0
   -9.2749   -4.9510   -1.2327 H   0  0
   -7.3436    0.0676    0.0868 H   0  0
   -2.5242    0.6306    0.0340 H   0  0
    1.6876   -1.4844    0.3076 H   0  0
    1.5944    2.8184   -0.0570 H   0  0
   -0.8410    1.9164   -0.0366 H   0  0
  1  2  1  0
  2  3  1  0
  3  4  1  0
  4  9  2  0
  4  5  1  0
  5  6  2  0
  6  7  1  0
  7  8  2  0
  7 10  1  0
  8  9  1  0
 10 11  2  0
 11 12  1  0
 11 14  1  0
 12 13  3  0
 14 15  2  0
 14 16  1  0
 16 17  1  0
 17 18  1  0
 18 19  2  0
 18 20  1  0
 20 24  1  0
 20 21  2  0
 21 22  1  0
 22 23  2  0
 22 25  1  0
 23 24  1  0
  1 26  1  0
  1 27  1  0
  1 28  1  0
  2 29  1  0
  2 30  1  0
  5 31  1  0
  6 32  1  0
  8 33  1  0
  9 34  1  0
 10 35  1  0
 17 36  1  0
 21 37  1  0
 23 38  1  0
 24 39  1  0
M  CHG  1  16  -1
M  END
> <Name>
ZINC26218196

> <reference>
BDB50073118

> <quality>
0.761

> <status>
decoy

$$$$
ZINC11855718
  SciTegic06061311253D

 45 48  0  0  0  0            999 V2000
   -1.0799    1.9149    0.0166 C   0  0
   -0.8640    3.2756    0.0271 C   0  0
    0.4250    3.7375    0.0174 C   0  0
    1.3603    2.2169    0.0010 S   0  0
   -0.0126    1.0758    0.0080 C   0  0
    0.9147    5.1323    0.0203 C   0  0
    2.2672    5.5343    0.0155 C   0  0
    2.2972    6.8909    0.0174 C   0  0
    1.0051    7.3343    0.0322 N   0  0
    0.1636    6.2147    0.0337 N   0  0
    0.5999    8.6547    0.0433 C   0  0
   -0.7284    8.9448    0.0520 N   0  0
   -1.1301   10.2334    0.0666 C   0  0
   -2.3173   10.5138    0.0792 O   0  0
   -0.1535   11.2482    0.0634 C   0  0
    1.1635   10.8981    0.0495 C   0  0
    1.5053    9.6072    0.0397 N   0  0
    2.0281   12.1407    0.0489 C   0  0
    1.0845   13.2877   -0.3729 C   0  0
   -0.2942   12.7535    0.0726 C   0  0
    3.4398    7.6878    0.0118 N   0  0
    4.6602    7.1160   -0.0031 C   0  0
    4.7636    5.9076   -0.0118 O   0  0
    5.8962    7.9781   -0.0091 C   0  0
    7.1396    7.0868   -0.0264 C   0  0
    8.3945    7.9620   -0.0324 C   0  0
    9.8598    6.9116   -0.0527 Cl  0  0
   -2.1040    1.5135    0.0152 H   0  0
   -1.7109    3.9774    0.0430 H   0  0
    0.0023   -0.0241    0.0059 H   0  0
    3.1416    4.8668    0.0110 H   0  0
   -1.4243    8.1855    0.0475 H   0  0
    2.8416   12.0350   -0.6839 H   0  0
    2.4193   12.3285    1.0597 H   0  0
    1.3327   14.2085    0.1753 H   0  0
    1.1075   13.4216   -1.4645 H   0  0
   -1.0676   13.0647   -0.6450 H   0  0
   -0.5230   13.1060    1.0892 H   0  0
    3.3520    8.7140    0.0190 H   0  0
    5.8924    8.6186   -0.9034 H   0  0
    5.9098    8.6077    0.8928 H   0  0
    7.1442    6.4463    0.8679 H   0  0
    7.1283    6.4572   -0.9283 H   0  0
    8.4082    8.5916    0.8695 H   0  0
    8.3908    8.6025   -0.9267 H   0  0
  1  5  2  0
  1  2  1  0
  2  3  2  0
  3  4  1  0
  3  6  1  0
  4  5  1  0
  6 10  2  0
  6  7  1  0
  7  8  2  0
  8  9  1  0
  8 21  1  0
  9 10  1  0
  9 11  1  0
 11 17  2  0
 11 12  1  0
 12 13  1  0
 13 14  2  0
 13 15  1  0
 15 20  1  0
 15 16  2  0
 16 17  1  0
 16 18  1  0
 18 19  1  0
 19 20  1  0
 21 22  1  0
 22 23  2  0
 22 24  1  0
 24 25  1  0
 25 26  1  0
 26 27  1  0
  1 28  1  0
  2 29  1  0
  5 30  1  0
  7 31  1  0
 12 32  1  0
 18 33  1  0
 18 34  1  0
 19 35  1  0
 19 36  1  0
 20 37  1  0
 20 38  1  0
 21 39  1  0
 24 40  1  0
 24 41  1  0
 25 42  1  0
 25 43  1  0
 26 44  1  0
 26 45  1  0
M  END
> <Name>
ZINC11855718

> <reference>
BDB50073118

> <quality>
0.750

> <status>
decoy

$$$$
ZINC24370130
  SciTegic06061311253D

 45 47  0  0  1  0            999 V2000
   -8.6419   -0.4337   -0.2125 C   0  0
   -8.1370    0.3647   -1.4161 C   0  0
   -7.6134    1.6551   -0.9612 N   0  0
   -8.3116    2.8339   -0.8204 C   0  0
   -7.4573    3.7381   -0.3940 N   0  0
   -6.2934    3.2112   -0.2560 N   0  0
   -6.3302    1.9400   -0.5848 C   0  0
   -4.9759    0.8133   -0.5536 S   0  0
   -3.6637    1.9151    0.0298 C   0  0  1  0  0  0
   -3.9798    2.3749    1.4545 C   0  0
   -2.3486    1.1794    0.0196 C   0  0
   -2.3321   -0.0328    0.0129 O   0  0
   -1.1906    1.8690    0.0179 N   0  0
   -0.0144    1.2111    0.0087 C   0  0
    0.0021   -0.0041    0.0020 O   0  0
    1.1435    1.9008    0.0013 N   0  0
    2.3608    1.2199   -0.0139 C   0  0
    2.5503   -0.1876   -0.0233 C   0  0
    3.8946   -0.3356   -0.0378 C   0  0
    4.4162    0.8996   -0.0365 O   0  0
    3.5559    1.7492   -0.0283 N   0  0
    4.6573   -1.6352   -0.0524 C   0  0
   -9.7411    3.0436   -1.1005 C   0  0
  -10.4294    4.2211   -1.2497 C   0  0
  -11.7793    4.1681   -1.5156 C   0  0
  -12.3887    2.9580   -1.6101 C   0  0
  -11.0328    1.8319   -1.3267 S   0  0
   -9.4415    0.1283    0.2923 H   0  0
   -7.8130   -0.6025    0.4907 H   0  0
   -9.0352   -1.4028   -0.5534 H   0  0
   -8.9658    0.5335   -2.1194 H   0  0
   -7.3373   -0.1978   -1.9201 H   0  0
   -3.5990    2.7911   -0.6324 H   0  0
   -4.0443    1.4997    2.1177 H   0  0
   -4.9395    2.9124    1.4631 H   0  0
   -3.1827    3.0446    1.8097 H   0  0
   -1.2045    2.8989    0.0236 H   0  0
    1.1295    2.9307    0.0069 H   0  0
    1.7820   -0.9748   -0.0196 H   0  0
    4.2318   -2.1476   -0.9278 H   0  0
    4.2497   -2.1568    0.8261 H   0  0
    5.7548   -1.5621   -0.0632 H   0  0
   -9.9131    5.1881   -1.1587 H   0  0
  -12.3571    5.0944   -1.6498 H   0  0
  -13.4462    2.7303   -1.8099 H   0  0
  1  2  1  0
  2  3  1  0
  3  7  1  0
  3  4  1  0
  4  5  2  0
  4 23  1  0
  5  6  1  0
  6  7  2  0
  7  8  1  0
  8  9  1  0
  9 10  1  0
  9 11  1  0
 11 12  2  0
 11 13  1  0
 13 14  1  0
 14 15  2  0
 14 16  1  0
 16 17  1  0
 17 21  2  0
 17 18  1  0
 18 19  2  0
 19 20  1  0
 19 22  1  0
 20 21  1  0
 23 27  1  0
 23 24  2  0
 24 25  1  0
 25 26  2  0
 26 27  1  0
  1 28  1  0
  1 29  1  0
  1 30  1  0
  2 31  1  0
  2 32  1  0
  9 33  1  0
 10 34  1  0
 10 35  1  0
 10 36  1  0
 13 37  1  0
 16 38  1  0
 18 39  1  0
 22 40  1  0
 22 41  1  0
 22 42  1  0
 24 43  1  0
 25 44  1  0
 26 45  1  0
M  END
> <Name>
ZINC24370130

> <reference>
BDB50073118

> <quality>
0.748

> <status>
decoy

$$$$
ZINC26233916
  SciTegic06061311253D

 50 53  0  0  1  0            999 V2000
   -1.2490    2.2292    0.0203 C   0  0
   -0.0165    1.3622    0.0095 C   0  0
    1.2583    1.8005   -0.0003 C   0  0
    2.0961    0.6666   -0.0144 C   0  0
    1.3025   -0.4232   -0.0127 C   0  0
    0.0021   -0.0041    0.0020 N   0  0
   -1.1221   -0.8347    0.0087 C   0  0
   -1.9687   -0.8472    1.1120 C   0  0
   -3.0802   -1.6598    1.1199 C   0  0
   -3.3509   -2.4814    0.0220 C   0  0
   -2.4946   -2.4702   -1.0827 C   0  0
   -1.3881   -1.6507   -1.0856 C   0  0
   -4.5371   -3.3583    0.0292 C   0  0
   -4.7707   -4.0721   -0.9258 O   0  0
   -5.3614   -3.3676    1.0950 O   0  0
   -6.5090   -4.2551    1.0329 C   0  0  2  0  0  0
   -7.6952   -3.5125    0.4147 C   0  0
   -6.8697   -4.7078    2.4243 C   0  0
   -6.2824   -4.2510    3.3820 O   0  0
   -7.8451   -5.6204    2.6044 N   0  0
   -8.1775   -6.0376    3.8868 C   0  0
   -9.1909   -6.9875    4.0930 C   0  0
   -9.4754   -7.3786    5.4132 C   0  0
  -10.4837   -8.3049    5.3241 N   0  0
  -10.7976   -8.4413    4.0047 C   0  0
  -10.0297   -7.6772    3.2833 N   0  0
   -8.7857   -6.8353    6.4101 N   0  0
   -7.8488   -5.9427    6.1690 C   0  0
   -7.5394   -5.5527    4.9458 N   0  0
    1.7691   -1.8561   -0.0252 C   0  0
   -1.7967    1.8572    0.8988 H   0  0
   -1.8054    1.8667   -0.8567 H   0  0
   -1.0810    3.3163    0.0254 H   0  0
    1.5851    2.8508    0.0022 H   0  0
    3.1960    0.6704   -0.0249 H   0  0
   -1.7501   -0.2071    1.9794 H   0  0
   -3.7543   -1.6624    1.9891 H   0  0
   -2.7044   -3.1153   -1.9487 H   0  0
   -0.7137   -1.6414   -1.9546 H   0  0
   -6.2622   -5.1309    0.4147 H   0  0
   -7.4330   -3.1818   -0.6011 H   0  0
   -7.9429   -2.6366    1.0323 H   0  0
   -8.5649   -4.1843    0.3674 H   0  0
   -8.3440   -6.0084    1.7911 H   0  0
  -11.5841   -9.1001    3.6081 H   0  0
  -10.0558   -7.6077    2.2560 H   0  0
   -7.3032   -5.5053    7.0181 H   0  0
    2.4389   -1.8996    0.8463 H   0  0
    2.4218   -1.8899   -0.9100 H   0  0
    0.9814   -2.6239   -0.0218 H   0  0
  1  2  1  0
  2  6  1  0
  2  3  2  0
  3  4  1  0
  4  5  2  0
  5  6  1  0
  5 30  1  0
  6  7  1  0
  7 12  2  0
  7  8  1  0
  8  9  2  0
  9 10  1  0
 10 11  2  0
 10 13  1  0
 11 12  1  0
 13 14  2  0
 13 15  1  0
 15 16  1  0
 16 17  1  0
 16 18  1  0
 18 19  2  0
 18 20  1  0
 20 21  1  0
 21 29  1  0
 21 22  2  0
 22 23  1  0
 22 26  1  0
 23 24  1  0
 23 27  2  0
 24 25  2  0
 25 26  1  0
 27 28  1  0
 28 29  2  0
  1 31  1  0
  1 32  1  0
  1 33  1  0
  3 34  1  0
  4 35  1  0
  8 36  1  0
  9 37  1  0
 11 38  1  0
 12 39  1  0
 16 40  1  0
 17 41  1  0
 17 42  1  0
 17 43  1  0
 20 44  1  0
 25 45  1  0
 26 46  1  0
 28 47  1  0
 30 48  1  0
 30 49  1  0
 30 50  1  0
M  END
> <Name>
ZINC26233916

> <reference>
BDB50073118

> <quality>
0.744

> <status>
decoy

$$$$
ZINC09735751
  SciTegic06061311253D

 47 49  0  0  0  0            999 V2000
   11.4057   -2.8857   -8.5153 C   0  0
   10.2899   -2.5199   -7.5707 C   0  0
    9.0661   -2.1162   -8.0733 C   0  0
    8.0406   -1.7805   -7.2127 C   0  0
    8.2400   -1.8483   -5.8356 C   0  0
    9.4764   -2.2500   -5.3348 C   0  0
   10.4934   -2.5886   -6.2043 C   0  0
    7.1409   -1.4879   -4.9051 C   0  0
    7.2008   -1.5099   -3.4998 C   0  0
    5.9515   -1.0998   -3.0750 C   0  0
    5.2177   -0.8625   -4.2033 N   0  0
    5.9330   -1.0902   -5.2453 N   0  0
    5.4984   -0.9535   -1.6822 C   0  0
    6.2578   -1.2052   -0.7661 O   0  0
    4.2421   -0.5408   -1.4221 N   0  0
    3.7912   -0.3952   -0.0358 C   0  0
    2.3597    0.0756   -0.0201 C   0  0
    1.2198   -0.6579   -0.0131 C   0  0
    0.0021   -0.0041    0.0020 C   0  0
   -0.0163    1.3513    0.0095 C   0  0
    1.7251    1.7443   -0.0050 S   0  0
   -1.3999    2.4421    0.0223 S   0  0
   -0.9506    3.6745   -0.5241 O   0  0
   -2.4926    1.7186   -0.5270 O   0  0
   -1.7765    2.7367    1.6078 N   0  0
   -1.1576    3.8633    2.3106 C   0  0
   -2.7286    1.8707    2.3076 C   0  0
   11.6902   -3.9118   -8.2393 H   0  0
   12.2436   -2.2295   -8.2371 H   0  0
   11.1358   -2.7955   -9.5779 H   0  0
    8.9099   -2.0626   -9.1608 H   0  0
    7.0676   -1.4600   -7.6134 H   0  0
    9.6418   -2.2972   -4.2483 H   0  0
   11.4675   -2.9137   -5.8099 H   0  0
    8.0591   -1.7932   -2.8728 H   0  0
    4.2370   -0.5479   -4.2160 H   0  0
    3.5990   -0.3278   -2.1979 H   0  0
    3.8631   -1.3656    0.4772 H   0  0
    4.4242    0.3409    0.4815 H   0  0
    1.2632   -1.7570   -0.0193 H   0  0
   -0.9380   -0.5752    0.0078 H   0  0
   -1.4008    4.7401    1.6925 H   0  0
   -0.0761    3.6949    2.2014 H   0  0
   -1.4662    3.9828    3.3596 H   0  0
   -2.3123    0.8585    2.1971 H   0  0
   -3.6371    1.9037    1.6883 H   0  0
   -2.9184    2.1410    3.3568 H   0  0
  1  2  1  0
  2  7  2  0
  2  3  1  0
  3  4  2  0
  4  5  1  0
  5  6  2  0
  5  8  1  0
  6  7  1  0
  8 12  2  0
  8  9  1  0
  9 10  2  0
 10 11  1  0
 10 13  1  0
 11 12  1  0
 13 14  2  0
 13 15  1  0
 15 16  1  0
 16 17  1  0
 17 21  1  0
 17 18  2  0
 18 19  1  0
 19 20  2  0
 20 21  1  0
 20 22  1  0
 22 23  2  0
 22 24  2  0
 22 25  1  0
 25 26  1  0
 25 27  1  0
  1 28  1  0
  1 29  1  0
  1 30  1  0
  3 31  1  0
  4 32  1  0
  6 33  1  0
  7 34  1  0
  9 35  1  0
 11 36  1  0
 15 37  1  0
 16 38  1  0
 16 39  1  0
 18 40  1  0
 19 41  1  0
 26 42  1  0
 26 43  1  0
 26 44  1  0
 27 45  1  0
 27 46  1  0
 27 47  1  0
M  END
> <Name>
ZINC09735751

> <reference>
BDB50073118

> <quality>
0.744

> <status>
decoy

$$$$
ZINC29933279
  SciTegic06061311253D

 55 57  0  0  0  0            999 V2000
   -0.0481    2.4784   -4.4962 C   0  0
    1.1581    2.9888   -5.2872 C   0  0
    0.7771    4.1867   -6.0396 N   0  0
    0.0846    4.0556   -7.3239 C   0  0
    1.1140    3.9852   -8.4536 C   0  0
    1.0639    5.4093   -5.5503 C   0  0
    0.6522    6.4026   -6.1171 O   0  0
    1.8792    5.5423   -4.3241 C   0  0
    2.7812    6.6001   -4.1940 C   0  0
    3.5406    6.7221   -3.0485 C   0  0
    3.4124    5.7995   -2.0269 C   0  0
    2.5175    4.7432   -2.1466 C   0  0
    1.7537    4.6087   -3.2957 C   0  0
    2.3915    3.8119   -1.1096 N   0  0
    1.1835    3.2932   -0.8128 C   0  0
    0.2182    3.5781   -1.4897 O   0  0
    1.0320    2.3591    0.3601 C   0  0
   -0.3665    1.9369    0.4707 N   0  0
   -0.6930    0.6585    0.2856 C   0  0
    0.2875   -0.2645   -0.1520 C   0  0
   -0.0360   -1.5653   -0.3425 C   0  0
   -1.3541   -2.0073   -0.1048 C   0  0
   -1.7050   -3.3532   -0.2969 C   0  0
   -3.0128   -3.7397   -0.0488 C   0  0
   -3.9394   -2.8071    0.3773 C   0  0
   -3.6036   -1.5234    0.5597 O   0  0
   -2.3439   -1.0930    0.3333 C   0  0
   -2.0101    0.2280    0.5311 C   0  0
   -5.2077   -3.1975    0.6137 O   0  0
   -0.6813   -4.3564   -0.7625 C   0  0
   -0.8647    2.2303   -5.1902 H   0  0
   -0.3858    3.2576   -3.7971 H   0  0
    0.2373    1.5789   -3.9310 H   0  0
    1.9740    3.2369   -4.5924 H   0  0
    1.4959    2.2096   -5.9863 H   0  0
   -0.5702    4.9258   -7.4792 H   0  0
   -0.5205    3.1370   -7.3222 H   0  0
    1.7690    3.1148   -8.3005 H   0  0
    1.7199    4.9033   -8.4566 H   0  0
    0.5946    3.8868   -9.4183 H   0  0
    2.8864    7.3361   -5.0047 H   0  0
    4.2505    7.5563   -2.9478 H   0  0
    4.0208    5.9019   -1.1162 H   0  0
    1.0510    3.7684   -3.3960 H   0  0
    3.2220    3.5229   -0.5732 H   0  0
    1.3322    2.8763    1.2833 H   0  0
    1.6704    1.4759    0.2104 H   0  0
    1.3165    0.0768   -0.3380 H   0  0
    0.7297   -2.2779   -0.6829 H   0  0
   -3.3130   -4.7883   -0.1910 H   0  0
   -2.7694    0.9436    0.8794 H   0  0
   -5.1359   -3.9236    1.2828 H   0  0
    0.1301   -4.2913   -0.0227 H   0  0
   -0.2916   -3.9414   -1.7037 H   0  0
   -1.0704   -5.3788   -0.8777 H   0  0
  1  2  1  0
  2  3  1  0
  3  4  1  0
  3  6  1  0
  4  5  1  0
  6  7  2  0
  6  8  1  0
  8 13  2  0
  8  9  1  0
  9 10  2  0
 10 11  1  0
 11 12  2  0
 12 13  1  0
 12 14  1  0
 14 15  1  0
 15 16  2  0
 15 17  1  0
 17 18  1  0
 18 19  2  0
 19 28  1  0
 19 20  1  0
 20 21  2  0
 21 22  1  0
 22 27  1  0
 22 23  2  0
 23 24  1  0
 23 30  1  0
 24 25  2  0
 25 26  1  0
 25 29  1  0
 26 27  1  0
 27 28  2  0
  1 31  1  0
  1 32  1  0
  1 33  1  0
  2 34  1  0
  2 35  1  0
  4 36  1  0
  4 37  1  0
  5 38  1  0
  5 39  1  0
  5 40  1  0
  9 41  1  0
 10 42  1  0
 11 43  1  0
 13 44  1  0
 14 45  1  0
 17 46  1  0
 17 47  1  0
 20 48  1  0
 21 49  1  0
 24 50  1  0
 28 51  1  0
 29 52  1  0
 30 53  1  0
 30 54  1  0
 30 55  1  0
M  END
> <Name>
ZINC29933279

> <reference>
BDB50073118

> <quality>
0.743

> <status>
decoy

$$$$
ZINC25041036
  SciTegic06061311253D

 45 48  0  0  0  0            999 V2000
   -7.5816  -13.8962   -4.2018 C   0  0
   -6.7196  -12.7156   -3.8353 C   0  0
   -5.8657  -12.3264   -4.6038 O   0  0
   -6.8975  -12.0923   -2.6537 N   0  0
   -6.1739  -10.9295   -2.3592 C   0  0
   -5.7900  -10.6504   -1.0495 C   0  0
   -5.0878   -9.5290   -0.7371 C   0  0
   -4.7194   -8.5994   -1.7373 C   0  0
   -5.1218   -8.9074   -3.0570 C   0  0
   -5.8306  -10.0403   -3.3693 C   0  0
   -4.4886   -7.5264   -3.9779 S   0  0
   -3.7451   -6.6609   -2.6022 C   0  0
   -4.0281   -7.4473   -1.5908 N   0  0
   -3.0513   -5.4612   -2.6028 N   0  0
   -2.5662   -4.9627   -1.4484 C   0  0
   -2.7369   -5.5639   -0.4091 O   0  0
   -1.8117   -3.6582   -1.4490 C   0  0
   -1.3739   -3.3215   -0.0222 C   0  0
   -0.6194   -2.0170   -0.0228 C   0  0
   -1.1314   -0.8220    0.1363 N   0  0
   -0.0872    0.0335    0.0607 C   0  0
    0.9879   -0.6854   -0.1295 N   0  0
    0.6990   -1.8623   -0.1796 O   0  0
   -0.1492    1.5124    0.1784 C   0  0
   -1.3679    2.1659    0.3766 C   0  0
   -1.3801    3.5421    0.4848 C   0  0
   -0.2635    4.2381    0.3938 N   0  0
    0.9065    3.6603    0.2023 C   0  0
    1.0090    2.2884    0.0879 C   0  0
   -6.8810  -14.7205   -4.4009 H   0  0
   -8.0588  -13.6263   -5.1554 H   0  0
   -8.3176  -14.1532   -3.4257 H   0  0
   -7.5655  -12.4709   -1.9672 H   0  0
   -6.0615  -11.3542   -0.2489 H   0  0
   -4.8021   -9.3420    0.3085 H   0  0
   -6.1241  -10.2422   -4.4100 H   0  0
   -2.9064   -4.9505   -3.4855 H   0  0
   -0.9242   -3.7481   -2.0927 H   0  0
   -2.4620   -2.8574   -1.8308 H   0  0
   -2.2610   -3.2311    0.6220 H   0  0
   -0.7225   -4.1208    0.3609 H   0  0
   -2.3040    1.5923    0.4454 H   0  0
   -2.3338    4.0651    0.6491 H   0  0
    1.8128    4.2798    0.1328 H   0  0
    1.9881    1.8133   -0.0721 H   0  0
  1  2  1  0
  2  3  2  0
  2  4  1  0
  4  5  1  0
  5 10  1  0
  5  6  2  0
  6  7  1  0
  7  8  2  0
  8 13  1  0
  8  9  1  0
  9 10  2  0
  9 11  1  0
 11 12  1  0
 12 13  2  0
 12 14  1  0
 14 15  1  0
 15 16  2  0
 15 17  1  0
 17 18  1  0
 18 19  1  0
 19 23  1  0
 19 20  2  0
 20 21  1  0
 21 22  2  0
 21 24  1  0
 22 23  1  0
 24 29  2  0
 24 25  1  0
 25 26  2  0
 26 27  1  0
 27 28  2  0
 28 29  1  0
  1 30  1  0
  1 31  1  0
  1 32  1  0
  4 33  1  0
  6 34  1  0
  7 35  1  0
 10 36  1  0
 14 37  1  0
 17 38  1  0
 17 39  1  0
 18 40  1  0
 18 41  1  0
 25 42  1  0
 26 43  1  0
 28 44  1  0
 29 45  1  0
M  END
> <Name>
ZINC25041036

> <reference>
BDB50073118

> <quality>
0.739

> <status>
decoy

$$$$
ZINC13600097
  SciTegic06061311253D

 48 50  0  0  0  0            999 V2000
    5.8699    5.0267    4.7224 C   0  0
    6.2356    3.7740    4.1401 O   0  0
    5.2828    3.1261    3.4235 C   0  0
    5.5714    1.8994    2.8281 C   0  0
    4.5690    1.2752    2.1064 C   0  0
    3.3282    1.9149    2.0197 C   0  0
    3.1479    3.0854    2.6164 N   0  0
    4.0787    3.6588    3.2890 N   0  0
    2.2199    1.2893    1.2579 C   0  0
    2.3779    0.0154    0.7144 C   0  0
    1.3462   -0.5659    0.0052 C   0  0
    0.1524    0.1126   -0.1681 C   0  0
   -0.0130    1.3844    0.3713 C   0  0
    1.0192    1.9736    1.0839 C   0  0
   -1.2202    2.0712    0.1894 N   0  0
   -1.2559    3.4136    0.3050 C   0  0
   -0.2251    4.0373    0.4689 O   0  0
   -2.4341    4.0645    0.2389 N   0  0
   -2.4619    5.4635    0.2468 C   0  0
   -3.5167    6.1336    0.8513 C   0  0
   -3.5412    7.5198    0.8630 C   0  0
   -2.5175    8.2369    0.2617 C   0  0
   -1.4661    7.5679   -0.3469 C   0  0
   -1.4377    6.1818   -0.3547 C   0  0
   -0.4632    8.2713   -0.9354 O   0  0
   -0.5569    9.6965   -0.8898 C   0  0
   -4.5708    8.1761    1.4596 O   0  0
   -4.5341    9.6043    1.4297 C   0  0
   -0.8542   -0.4609   -0.8631 F   0  0
    5.0002    4.8267    5.3656 H   0  0
    5.5359    5.6675    3.8931 H   0  0
    6.6928    5.4901    5.2864 H   0  0
    6.5663    1.4410    2.9288 H   0  0
    4.7427    0.3059    1.6161 H   0  0
    3.3252   -0.5268    0.8508 H   0  0
    1.4732   -1.5710   -0.4233 H   0  0
    0.8907    2.9791    1.5110 H   0  0
   -2.0806    1.5504   -0.0327 H   0  0
   -3.3141    3.5322    0.1826 H   0  0
   -4.3329    5.5650    1.3209 H   0  0
   -2.5396    9.3367    0.2675 H   0  0
   -0.6037    5.6514   -0.8375 H   0  0
   -0.6200    9.9684    0.1742 H   0  0
   -1.5149    9.9587   -1.3625 H   0  0
    0.2892   10.1946   -1.3857 H   0  0
   -4.4828    9.8902    0.3687 H   0  0
   -3.5869    9.8993    1.9048 H   0  0
   -5.3990   10.0627    1.9314 H   0  0
  1  2  1  0
  2  3  1  0
  3  8  2  0
  3  4  1  0
  4  5  2  0
  5  6  1  0
  6  7  2  0
  6  9  1  0
  7  8  1  0
  9 14  2  0
  9 10  1  0
 10 11  2  0
 11 12  1  0
 12 13  2  0
 12 29  1  0
 13 14  1  0
 13 15  1  0
 15 16  1  0
 16 17  2  0
 16 18  1  0
 18 19  1  0
 19 24  2  0
 19 20  1  0
 20 21  2  0
 21 22  1  0
 21 27  1  0
 22 23  2  0
 23 24  1  0
 23 25  1  0
 25 26  1  0
 27 28  1  0
  1 30  1  0
  1 31  1  0
  1 32  1  0
  4 33  1  0
  5 34  1  0
 10 35  1  0
 11 36  1  0
 14 37  1  0
 15 38  1  0
 18 39  1  0
 20 40  1  0
 22 41  1  0
 24 42  1  0
 26 43  1  0
 26 44  1  0
 26 45  1  0
 28 46  1  0
 28 47  1  0
 28 48  1  0
M  END
> <Name>
ZINC13600097

> <reference>
BDB50073118

> <quality>
0.739

> <status>
decoy

$$$$
ZINC26535873
  SciTegic06061311253D

 42 44  0  0  0  0            999 V2000
    0.2296   -2.5658    0.4066 C   0  0
    1.3524   -1.7632    0.4882 C   0  0
    1.2304   -0.3877    0.4166 C   0  0
   -0.0189    0.1901    0.2627 C   0  0
   -1.1515   -0.6176    0.1862 C   0  0
   -1.0209   -1.9971    0.2535 C   0  0
   -2.4172   -0.0391    0.0365 N   0  5
   -3.7337   -0.7266    0.7689 S   0  0
   -4.8276    0.1525    0.5460 O   0  0
   -3.7571   -2.0891    0.3661 O   0  0
   -3.4274   -0.7196    2.5040 C   0  0
   -3.7702    0.3010    3.3964 C   0  0
   -3.3515   -0.0978    4.6480 C   0  0
   -2.7666   -1.3366    4.5144 N   0  0
   -2.8235   -1.7044    3.2112 C   0  0
   -3.5021    0.6600    5.8948 C   0  0
   -4.0405    1.7513    5.8824 O   0  0
   -3.0441    0.1477    7.0543 N   0  0
   -2.3826   -1.1556    7.2131 C   0  0
   -2.0578   -1.3250    8.7122 C   0  0
   -3.0674   -0.3649    9.3950 C   0  0
   -3.1291    0.7987    8.3743 C   0  0
   -0.1404    1.5429    0.1921 O   0  0
    1.0631    2.3080    0.2836 C   0  0  1  0  0  0
    1.9222    1.9526   -0.7618 F   0  0
    0.7576    3.6702    0.1936 F   0  0
    1.6876    2.0500    1.5086 F   0  0
    0.3317   -3.6596    0.4637 H   0  0
    2.3455   -2.2201    0.6104 H   0  0
    2.1258    0.2478    0.4819 H   0  0
   -1.9122   -2.6381    0.1850 H   0  0
   -4.2782    1.2442    3.1468 H   0  0
   -2.3543   -1.8917    5.2778 H   0  0
   -2.4416   -2.6486    2.7956 H   0  0
   -1.4517   -1.1759    6.6275 H   0  0
   -3.0593   -1.9592    6.8871 H   0  0
   -2.2455   -2.3618    9.0283 H   0  0
   -1.0268   -1.0021    8.9189 H   0  0
   -2.6696   -0.0095   10.3570 H   0  0
   -4.0522   -0.8462    9.4870 H   0  0
   -4.0849    1.3342    8.4727 H   0  0
   -2.2718    1.4723    8.5202 H   0  0
  1  6  2  0
  1  2  1  0
  2  3  2  0
  3  4  1  0
  4  5  2  0
  4 23  1  0
  5  6  1  0
  5  7  1  0
  7  8  1  0
  8  9  2  0
  8 10  2  0
  8 11  1  0
 11 15  2  0
 11 12  1  0
 12 13  2  0
 13 14  1  0
 13 16  1  0
 14 15  1  0
 16 17  2  0
 16 18  1  0
 18 22  1  0
 18 19  1  0
 19 20  1  0
 20 21  1  0
 21 22  1  0
 23 24  1  0
 24 25  1  0
 24 26  1  0
 24 27  1  0
  1 28  1  0
  2 29  1  0
  3 30  1  0
  6 31  1  0
 12 32  1  0
 14 33  1  0
 15 34  1  0
 19 35  1  0
 19 36  1  0
 20 37  1  0
 20 38  1  0
 21 39  1  0
 21 40  1  0
 22 41  1  0
 22 42  1  0
M  CHG  1   7  -1
M  END
> <Name>
ZINC26535873

> <reference>
BDB50073118

> <quality>
0.736

> <status>
decoy

$$$$
ZINC31394782
  SciTegic06061311253D

 52 54  0  0  1  0            999 V2000
   -7.9092    6.6499    2.7138 C   0  0
   -6.5569    7.3121    2.7755 C   0  0
   -6.3953    8.4904    3.4751 C   0  0
   -5.1558    9.1025    3.5279 C   0  0
   -4.0692    8.5352    2.8858 C   0  0
   -4.2158    7.3543    2.1882 C   0  0
   -5.4639    6.7317    2.1305 C   0  0
   -5.6285    5.4660    1.3842 C   0  0
   -6.6843    4.8656    1.4312 O   0  0
   -4.6078    4.9780    0.6518 N   0  0
   -4.7709    3.7239   -0.0877 C   0  0  1  0  0  0
   -5.4143    4.0125   -1.4455 C   0  0
   -3.4221    3.0849   -0.2967 C   0  0
   -3.2814    1.7147   -0.1743 C   0  0
   -2.0465    1.1262   -0.3642 C   0  0
   -0.9455    1.9119   -0.6789 C   0  0
   -1.0891    3.2882   -0.7959 C   0  0
   -2.3278    3.8701   -0.6099 C   0  0
    0.3070    1.3187   -0.8720 N   0  0
    1.1643    1.8335   -1.7755 C   0  0
    0.8177    2.7549   -2.4841 O   0  0
    2.5536    1.2644   -1.9055 C   0  0  2  0  0  0
    3.7225    2.1455   -1.4602 C   0  0
    3.4795    1.8921   -2.9494 C   0  0
   -2.4948    9.3227    2.9598 S   0  0
   -2.5222   10.0755    4.1647 O   0  0
   -1.5549    8.2716    2.7836 O   0  0
   -2.4627   10.4362    1.5281 C   0  0
   -7.7478    5.6357    3.1078 H   0  0
   -8.1283    6.5496    1.6405 H   0  0
   -8.6973    7.1926    3.2563 H   0  0
   -7.2539    8.9440    3.9919 H   0  0
   -5.0334   10.0444    4.0828 H   0  0
   -3.3512    6.9042    1.6785 H   0  0
   -3.7131    5.4867    0.6120 H   0  0
   -5.4152    3.0412    0.4857 H   0  0
   -4.7705    4.6949   -2.0198 H   0  0
   -6.3990    4.4788   -1.2941 H   0  0
   -5.5371    3.0712   -2.0013 H   0  0
   -4.1540    1.0928    0.0746 H   0  0
   -1.9351    0.0362   -0.2663 H   0  0
   -0.2172    3.9143   -1.0365 H   0  0
   -2.4440    4.9593   -0.7110 H   0  0
    0.5738    0.4886   -0.3236 H   0  0
    2.2183    0.2420   -1.6769 H   0  0
    4.5608    1.5427   -1.0809 H   0  0
    3.3809    3.1475   -1.1613 H   0  0
    3.0108    2.7611   -3.4343 H   0  0
    4.1893    1.1554   -3.3536 H   0  0
   -3.2483   11.2035    1.5920 H   0  0
   -2.5401    9.8827    0.5806 H   0  0
   -1.4924   10.9543    1.5310 H   0  0
  1  2  1  0
  2  7  2  0
  2  3  1  0
  3  4  2  0
  4  5  1  0
  5  6  2  0
  5 25  1  0
  6  7  1  0
  7  8  1  0
  8  9  2  0
  8 10  1  0
 10 11  1  0
 11 12  1  0
 11 13  1  0
 13 18  2  0
 13 14  1  0
 14 15  2  0
 15 16  1  0
 16 17  2  0
 16 19  1  0
 17 18  1  0
 19 20  1  0
 20 21  2  0
 20 22  1  0
 22 24  1  0
 22 23  1  0
 23 24  1  0
 25 26  2  0
 25 27  2  0
 25 28  1  0
  1 29  1  0
  1 30  1  0
  1 31  1  0
  3 32  1  0
  4 33  1  0
  6 34  1  0
 10 35  1  0
 11 36  1  0
 12 37  1  0
 12 38  1  0
 12 39  1  0
 14 40  1  0
 15 41  1  0
 17 42  1  0
 18 43  1  0
 19 44  1  0
 22 45  1  0
 23 46  1  0
 23 47  1  0
 24 48  1  0
 24 49  1  0
 28 50  1  0
 28 51  1  0
 28 52  1  0
M  END
> <Name>
ZINC31394782

> <reference>
BDB50073118

> <quality>
0.733

> <status>
decoy

$$$$
ZINC29675164
  SciTegic06061311253D

 51 54  0  0  0  0            999 V2000
   -0.6860   -0.1945   -2.8120 C   0  0
   -0.0772    1.1375   -2.3694 C   0  0  1  0  0  0
   -0.3382    2.1985   -3.4404 C   0  0
   -0.6736    1.5477   -1.1373 O   0  0
    0.0083    1.0724    0.0251 C   0  0
   -0.7029    1.5622    1.2602 C   0  0
   -0.3406    2.7696    1.8303 C   0  0
   -0.9909    3.2261    2.9581 C   0  0
   -2.0092    2.4618    3.5302 C   0  0
   -2.3662    1.2420    2.9530 C   0  0
   -1.7115    0.7996    1.8222 C   0  0
   -2.7062    2.9417    4.7422 C   0  0
   -3.5924    2.2737    5.2384 O   0  0
   -2.3591    4.1199    5.2970 N   0  0
   -3.0820    4.6205    6.3856 C   0  0
   -3.2753    5.9895    6.5206 C   0  0
   -3.9920    6.4828    7.5920 C   0  0
   -4.5117    5.6113    8.5403 C   0  0
   -4.3139    4.2430    8.4083 C   0  0
   -3.6014    3.7490    7.3344 C   0  0
   -5.2353    6.1128    9.6309 N   0  0
   -4.9910    7.2843   10.2789 C   0  0
   -5.9518    7.3859   11.2979 C   0  0
   -6.7629    6.2382   11.2236 C   0  0
   -6.3377    5.4972   10.2370 N   0  0
   -5.9191    8.5668   12.1604 C   0  0
   -6.7256    8.7136   13.0618 O   0  0
   -4.9592    9.4904   11.9197 N   0  0
   -4.0714    9.3073   10.9099 C   0  0
   -4.0856    8.2638   10.1332 N   0  0
   -0.2274   -0.5113   -3.7603 H   0  0
   -1.7705   -0.0747   -2.9518 H   0  0
   -0.4987   -0.9578   -2.0424 H   0  0
    1.0072    1.0166   -2.2296 H   0  0
   -1.4224    2.3204   -3.5807 H   0  0
    0.1207    1.8838   -4.3893 H   0  0
    0.0993    3.1565   -3.1228 H   0  0
    1.0420    1.4486    0.0247 H   0  0
    0.0184   -0.0275    0.0204 H   0  0
    0.4678    3.3669    1.3833 H   0  0
   -0.7076    4.1902    3.4055 H   0  0
   -3.1678    0.6349    3.3989 H   0  0
   -1.9918   -0.1614    1.3663 H   0  0
   -1.5618    4.6518    4.9198 H   0  0
   -2.8572    6.6803    5.7737 H   0  0
   -4.1516    7.5663    7.6948 H   0  0
   -4.7251    3.5529    9.1597 H   0  0
   -3.4449    2.6652    7.2299 H   0  0
   -7.6108    6.0054   11.8845 H   0  0
   -4.9024   10.3357   12.5055 H   0  0
   -3.3041   10.0770   10.7402 H   0  0
  1  2  1  0
  2  3  1  0
  2  4  1  0
  4  5  1  0
  5  6  1  0
  6 11  2  0
  6  7  1  0
  7  8  2  0
  8  9  1  0
  9 10  2  0
  9 12  1  0
 10 11  1  0
 12 13  2  0
 12 14  1  0
 14 15  1  0
 15 20  2  0
 15 16  1  0
 16 17  2  0
 17 18  1  0
 18 19  2  0
 18 21  1  0
 19 20  1  0
 21 25  1  0
 21 22  1  0
 22 30  1  0
 22 23  2  0
 23 24  1  0
 23 26  1  0
 24 25  2  0
 26 27  2  0
 26 28  1  0
 28 29  1  0
 29 30  2  0
  1 31  1  0
  1 32  1  0
  1 33  1  0
  2 34  1  0
  3 35  1  0
  3 36  1  0
  3 37  1  0
  5 38  1  0
  5 39  1  0
  7 40  1  0
  8 41  1  0
 10 42  1  0
 11 43  1  0
 14 44  1  0
 16 45  1  0
 17 46  1  0
 19 47  1  0
 20 48  1  0
 24 49  1  0
 28 50  1  0
 29 51  1  0
M  END
> <Name>
ZINC29675164

> <reference>
BDB50073118

> <quality>
0.733

> <status>
decoy

$$$$
ZINC30332278
  SciTegic06061311253D

 45 47  0  0  0  0            999 V2000
    2.4031    1.6631    1.6354 C   0  0
    1.0701    2.3353    1.4299 C   0  0
   -0.0718    1.5690    1.2792 C   0  0
   -1.2946    2.1775    1.0855 C   0  0
   -1.3812    3.5704    1.0517 C   0  0
   -0.2270    4.3394    1.2037 C   0  0
    0.9931    3.7181    1.3923 C   0  0
    2.1124    4.4602    1.5398 F   0  0
   -2.6899    4.2279    0.8496 C   0  0
   -2.7619    5.4408    0.8156 O   0  0
   -3.8032    3.4825    0.7031 N   0  0
   -5.0999    4.1340    0.5028 C   0  0
   -6.1900    3.0691    0.3658 C   0  0
   -7.4868    3.7207    0.1656 N   0  0
   -8.7765    2.8442   -0.3919 S   0  0
   -9.8800    3.7376   -0.4499 O   0  0
   -8.3179    2.1252   -1.5286 O   0  0
   -9.1632    1.6453    0.8400 C   0  0
   -9.0354    0.3174    0.5666 C   0  0
   -9.3306   -0.6430    1.5312 C   0  0
   -9.7673   -0.2827    2.7712 C   0  0
   -9.9177    1.0805    3.0889 C   0  0
   -9.6100    2.0541    2.1067 C   0  0
   -9.7610    3.4170    2.4258 C   0  0
  -10.2007    3.7407    3.6775 C   0  0
  -10.4856    2.7329    4.5966 C   0  0
  -10.3439    1.4650    4.2960 N   0  0
  -10.0549   -1.2295    3.6910 F   0  0
    2.7904    2.0766    2.5783 H   0  0
    3.0436    2.0431    0.8259 H   0  0
    2.3494    0.5645    1.6487 H   0  0
   -0.0045    0.4716    1.3139 H   0  0
   -2.2001    1.5661    0.9579 H   0  0
   -0.2879    5.4373    1.1735 H   0  0
   -3.7423    2.4547    0.7320 H   0  0
   -5.3239    4.7783    1.3658 H   0  0
   -5.0675    4.7442   -0.4118 H   0  0
   -6.2246    2.4584    1.2801 H   0  0
   -5.9669    2.4247   -0.4973 H   0  0
   -7.5964    4.7239    0.3716 H   0  0
   -8.6944   -0.0011   -0.4295 H   0  0
   -9.2094   -1.7090    1.2885 H   0  0
   -9.5312    4.1993    1.6874 H   0  0
  -10.3298    4.7960    3.9599 H   0  0
  -10.8388    3.0087    5.6012 H   0  0
  1  2  1  0
  2  7  2  0
  2  3  1  0
  3  4  2  0
  4  5  1  0
  5  6  2  0
  5  9  1  0
  6  7  1  0
  7  8  1  0
  9 10  2  0
  9 11  1  0
 11 12  1  0
 12 13  1  0
 13 14  1  0
 14 15  1  0
 15 16  2  0
 15 17  2  0
 15 18  1  0
 18 23  2  0
 18 19  1  0
 19 20  2  0
 20 21  1  0
 21 22  2  0
 21 28  1  0
 22 27  1  0
 22 23  1  0
 23 24  1  0
 24 25  2  0
 25 26  1  0
 26 27  2  0
  1 29  1  0
  1 30  1  0
  1 31  1  0
  3 32  1  0
  4 33  1  0
  6 34  1  0
 11 35  1  0
 12 36  1  0
 12 37  1  0
 13 38  1  0
 13 39  1  0
 14 40  1  0
 19 41  1  0
 20 42  1  0
 24 43  1  0
 25 44  1  0
 26 45  1  0
M  END
> <Name>
ZINC30332278

> <reference>
BDB50073118

> <quality>
0.732

> <status>
decoy

$$$$
ZINC07099967
  SciTegic06061311253D

 46 48  0  0  1  0            999 V2000
    2.3155   -2.9949   -0.0362 C   0  0
    1.0859   -2.1238   -0.0193 C   0  0
    1.2133   -0.7335   -0.0135 C   0  0
    2.4414    0.0939   -0.0208 C   0  0
    3.5438   -0.4243   -0.0345 O   0  0
    2.3079    1.4346   -0.0123 N   0  0
    1.0862    2.0220    0.0025 C   0  0
   -0.0159    1.3225    0.0093 N   0  0
    0.0021   -0.0041    0.0020 C   0  0
   -1.2384   -1.2737    0.0071 S   0  0
   -0.1552   -2.6922   -0.0101 C   0  0
   -0.5098   -4.1130   -0.0142 C   0  0
    0.3649   -4.9581   -0.0273 O   0  0
   -1.8066   -4.4846   -0.0034 O   0  0
   -2.0840   -5.9099   -0.0082 C   0  0  1  0  0  0
   -2.1672   -6.4181    1.4325 C   0  0
   -3.3947   -6.1641   -0.7071 C   0  0
   -4.0322   -5.2356   -1.1569 O   0  0
   -3.8584   -7.4234   -0.8324 N   0  0
   -5.1325   -7.6706   -1.5118 C   0  0
   -5.4204   -9.1498   -1.5169 C   0  0
   -4.9798   -9.9357   -2.5654 C   0  0
   -5.2391  -11.2931   -2.5688 C   0  0
   -5.9495  -11.8642   -1.5266 C   0  0
   -6.3949  -11.0753   -0.4795 C   0  0
   -6.1299   -9.7190   -0.4757 C   0  0
   -6.2076  -13.1903   -1.5311 F   0  0
    0.9979    3.5264    0.0115 C   0  0
    2.2009   -3.6341   -0.9241 H   0  0
    2.2184   -3.6437    0.8468 H   0  0
    3.2599   -2.4309   -0.0425 H   0  0
    3.1516    2.0255   -0.0171 H   0  0
   -1.2776   -6.4387   -0.5375 H   0  0
   -2.9735   -5.8901    1.9627 H   0  0
   -1.2108   -6.2331    1.9435 H   0  0
   -2.3773   -7.4978    1.4296 H   0  0
   -3.3169   -8.2120   -0.4505 H   0  0
   -5.0737   -7.3057   -2.5478 H   0  0
   -5.9391   -7.1424   -0.9822 H   0  0
   -4.4226   -9.4804   -3.3974 H   0  0
   -4.8813  -11.9196   -3.3992 H   0  0
   -6.9594  -11.5280    0.3490 H   0  0
   -6.4836   -9.0920    0.3561 H   0  0
    1.5514    3.8591   -0.8790 H   0  0
    1.5683    3.8495    0.8948 H   0  0
   -0.0356    3.9027    0.0234 H   0  0
  1  2  1  0
  2 11  2  0
  2  3  1  0
  3  9  2  0
  3  4  1  0
  4  5  2  0
  4  6  1  0
  6  7  1  0
  7  8  2  0
  7 28  1  0
  8  9  1  0
  9 10  1  0
 10 11  1  0
 11 12  1  0
 12 13  2  0
 12 14  1  0
 14 15  1  0
 15 16  1  0
 15 17  1  0
 17 18  2  0
 17 19  1  0
 19 20  1  0
 20 21  1  0
 21 26  2  0
 21 22  1  0
 22 23  2  0
 23 24  1  0
 24 25  2  0
 24 27  1  0
 25 26  1  0
  1 29  1  0
  1 30  1  0
  1 31  1  0
  6 32  1  0
 15 33  1  0
 16 34  1  0
 16 35  1  0
 16 36  1  0
 19 37  1  0
 20 38  1  0
 20 39  1  0
 22 40  1  0
 23 41  1  0
 25 42  1  0
 26 43  1  0
 28 44  1  0
 28 45  1  0
 28 46  1  0
M  END
> <Name>
ZINC07099967

> <reference>
BDB50073118

> <quality>
0.730

> <status>
decoy

$$$$
ZINC31618487
  SciTegic06061311253D

 38 39  0  0  0  0            999 V2000
    0.5839    1.4733   -6.1896 C   0  0
    0.8126    1.1252   -4.7413 C   0  0
    0.0530    1.7176   -3.7479 C   0  0
    0.3235    1.3376   -2.3555 C   0  0
    1.2818    0.4524   -2.1118 N   0  0
    1.9786   -0.0897   -3.1077 C   0  0
    2.8479   -0.9027   -2.8431 O   0  0
    1.7616    0.2313   -4.3930 N   0  0
   -0.6006    2.0482   -1.0342 S   0  0
    0.1707    1.2125    0.3739 C   0  0
   -0.4786    1.6780    1.6516 C   0  0
   -1.3747    2.4945    1.6140 O   0  0
   -0.0636    1.1871    2.8362 N   0  0
   -0.7362    1.5365    4.0129 C   0  0
   -0.0352    1.6531    5.2063 C   0  0
   -0.6995    2.0045    6.3649 C   0  0
   -2.0649    2.2280    6.3408 C   0  0
   -2.7677    2.1066    5.1538 C   0  0
   -2.1059    1.7615    3.9901 C   0  0
   -4.4805    2.3883    5.1269 Cl  0  0
   -2.8980    2.6620    7.8007 Cl  0  0
   -0.9937    2.6974   -4.0765 C   0  0
   -1.1345    3.0746   -5.2234 O   0  0
   -1.7966    3.1770   -3.1059 O   0  0
   -2.8074    4.1409   -3.5029 C   0  0
    0.3758    0.5122   -6.6824 H   0  0
    1.5615    1.8206   -6.5552 H   0  0
   -0.2146    2.2126   -6.3507 H   0  0
    2.3305   -0.2133   -5.1276 H   0  0
    1.2440    1.4517    0.4006 H   0  0
    0.0398    0.1251    0.2717 H   0  0
    0.7485    0.5548    2.8756 H   0  0
    1.0485    1.4656    5.2286 H   0  0
   -0.1426    2.1069    7.3080 H   0  0
   -2.6640    1.6653    3.0471 H   0  0
   -3.4189    3.6489   -4.2736 H   0  0
   -2.2705    4.9748   -3.9787 H   0  0
   -3.4210    4.4842   -2.6570 H   0  0
  1  2  1  0
  2  8  1  0
  2  3  2  0
  3  4  1  0
  3 22  1  0
  4  5  2  0
  4  9  1  0
  5  6  1  0
  6  7  2  0
  6  8  1  0
  9 10  1  0
 10 11  1  0
 11 12  2  0
 11 13  1  0
 13 14  1  0
 14 19  2  0
 14 15  1  0
 15 16  2  0
 16 17  1  0
 17 18  2  0
 17 21  1  0
 18 19  1  0
 18 20  1  0
 22 23  2  0
 22 24  1  0
 24 25  1  0
  1 26  1  0
  1 27  1  0
  1 28  1  0
  8 29  1  0
 10 30  1  0
 10 31  1  0
 13 32  1  0
 15 33  1  0
 16 34  1  0
 19 35  1  0
 25 36  1  0
 25 37  1  0
 25 38  1  0
M  END
> <Name>
ZINC31618487

> <reference>
BDB50073118

> <quality>
0.729

> <status>
decoy

$$$$
ZINC26208535
  SciTegic06061311253D

 52 54  0  0  0  0            999 V2000
    1.7568    4.4068    2.5712 C   0  0
    2.8814    3.7188    1.7948 C   0  0  1  0  0  0
    4.2335    4.2362    2.2899 C   0  0
    2.8035    2.2295    2.0116 C   0  0
    3.3322    1.7295    2.9818 O   0  0
    2.1462    1.4533    1.1273 N   0  0
    1.4017    2.0543    0.0123 C   0  0
   -0.0347    1.5222    0.0349 C   0  0
   -0.0079   -0.0079    0.0206 C   0  0  1  0  0  0
    0.7162   -0.5189    1.2683 C   0  0
    2.1611   -0.0099    1.2596 C   0  0
   -1.4197   -0.5347    0.0084 C   0  0
   -2.3551    0.2373    0.0110 O   0  0
   -1.6430   -1.8638   -0.0053 N   0  0
   -2.9449   -2.3496   -0.0165 C   0  0
   -3.3592   -3.5998   -0.0358 N   0  0
   -4.6510   -3.8953   -0.0394 C   0  0
   -5.5456   -2.8631   -0.0347 C   0  0
   -4.4370   -1.4621   -0.0162 S   0  0
   -5.1124   -5.3071   -0.0545 C   0  0
   -4.2960   -6.4501    0.0328 C   0  0
   -5.1322   -7.5446   -0.0153 C   0  0
   -6.4233   -7.0816   -0.1384 N   0  0
   -6.4055   -5.7325   -0.1615 C   0  0
   -4.7207   -8.9494    0.0478 C   0  0
   -3.5433   -9.2338    0.1579 O   0  0
   -5.6476   -9.9273   -0.0164 O   0  0
   -5.1678  -11.2960    0.0521 C   0  0
    1.8126    5.4940    2.4134 H   0  0
    1.8623    4.1867    3.6438 H   0  0
    0.7844    4.0353    2.2158 H   0  0
    2.7747    3.9392    0.7224 H   0  0
    4.3413    4.0160    3.3622 H   0  0
    4.2915    5.3232    2.1318 H   0  0
    5.0426    3.7420    1.7321 H   0  0
    1.3903    3.1486    0.1239 H   0  0
    1.8794    1.7822   -0.9405 H   0  0
   -0.5766    1.8874   -0.8500 H   0  0
   -0.5413    1.8714    0.9467 H   0  0
    0.5219   -0.3561   -0.8783 H   0  0
    0.7153   -1.6189    1.2699 H   0  0
    0.2028   -0.1492    2.1681 H   0  0
    2.6554   -0.2909    2.2012 H   0  0
    2.7014   -0.4515    0.4093 H   0  0
   -0.8486   -2.5195   -0.0075 H   0  0
   -6.6453   -2.8876   -0.0407 H   0  0
   -3.1998   -6.4668    0.1223 H   0  0
   -7.2663   -7.6700   -0.2025 H   0  0
   -7.2880   -5.0821   -0.2517 H   0  0
   -4.6102  -11.3819    0.9964 H   0  0
   -4.4524  -11.4152   -0.7749 H   0  0
   -5.9815  -12.0338   -0.0065 H   0  0
  1  2  1  0
  2  3  1  0
  2  4  1  0
  4  5  2  0
  4  6  1  0
  6 11  1  0
  6  7  1  0
  7  8  1  0
  8  9  1  0
  9 10  1  0
  9 12  1  0
 10 11  1  0
 12 13  2  0
 12 14  1  0
 14 15  1  0
 15 19  1  0
 15 16  2  0
 16 17  1  0
 17 18  2  0
 17 20  1  0
 18 19  1  0
 20 24  2  0
 20 21  1  0
 21 22  2  0
 22 23  1  0
 22 25  1  0
 23 24  1  0
 25 26  2  0
 25 27  1  0
 27 28  1  0
  1 29  1  0
  1 30  1  0
  1 31  1  0
  2 32  1  0
  3 33  1  0
  3 34  1  0
  3 35  1  0
  7 36  1  0
  7 37  1  0
  8 38  1  0
  8 39  1  0
  9 40  1  0
 10 41  1  0
 10 42  1  0
 11 43  1  0
 11 44  1  0
 14 45  1  0
 18 46  1  0
 21 47  1  0
 23 48  1  0
 24 49  1  0
 28 50  1  0
 28 51  1  0
 28 52  1  0
M  END
> <Name>
ZINC26208535

> <reference>
BDB50073118

> <quality>
0.727

> <status>
decoy

$$$$
ZINC26463196
  SciTegic06061311253D

 48 50  0  0  1  0            999 V2000
    2.3830    2.2100    1.7066 C   0  0
    2.1437    0.7630    1.2709 C   0  0  1  0  0  0
    1.4160    0.0456    2.3305 C   0  0
    0.8545   -0.5081    3.1481 N   0  0
    1.3162    0.7481   -0.0160 C   0  0  2  0  0  0
   -0.0202    1.4929   -0.0053 C   0  0
    0.0030   -0.0369   -0.0024 C   0  0
    3.4309    0.1058    1.0315 N   0  5
    4.3299    0.0008    2.0301 C   0  0
    4.0733    0.4503    3.1269 O   0  0
    5.6541   -0.6753    1.7838 C   0  0
    6.4485   -0.6609    3.0194 N   0  0
    5.8684   -1.5630    4.0311 C   0  0
    6.9670   -2.5713    4.4284 C   0  0
    8.2754   -1.8331    4.0409 C   0  0
    7.8419   -1.0804    2.7583 C   0  0  2  0  0  0
    8.7194    0.1242    2.5350 C   0  0
    8.2437    1.2388    2.5852 O   0  0
   10.0329   -0.0369    2.2795 N   0  0
   10.8282    1.0739    1.9768 C   0  0
   11.8703    0.9559    1.0668 C   0  0
   12.6511    2.0561    0.7655 C   0  0
   12.4019    3.2716    1.3782 C   0  0
   11.3673    3.3905    2.2894 C   0  0
   10.5802    2.2947    2.5902 C   0  0
   11.0579    4.9171    3.0558 Cl  0  0
   13.9501    1.9110   -0.3770 Cl  0  0
    2.9780    2.2219    2.6317 H   0  0
    1.4170    2.7045    1.8863 H   0  0
    2.9268    2.7467    0.9152 H   0  0
    2.2090    0.7605   -0.6584 H   0  0
   -0.2692    1.8898   -1.0005 H   0  0
   -0.2501    1.8940    0.9928 H   0  0
   -0.2155   -0.4409    0.9971 H   0  0
   -0.2329   -0.4451   -0.9963 H   0  0
    5.4822   -1.7158    1.4712 H   0  0
    6.1988   -0.1398    0.9923 H   0  0
    5.0089   -2.1003    3.6038 H   0  0
    5.5597   -0.9837    4.9138 H   0  0
    6.9413   -2.7553    5.5126 H   0  0
    6.8656   -3.4971    3.8431 H   0  0
    9.0708   -2.5568    3.8094 H   0  0
    8.5592   -1.1179    4.8270 H   0  0
    7.9263   -1.7077    1.8587 H   0  0
   10.4513   -0.9777    2.3071 H   0  0
   12.0744   -0.0122    0.5861 H   0  0
   13.0273    4.1447    1.1405 H   0  0
    9.7581    2.3897    3.3149 H   0  0
  1  2  1  0
  2  3  1  0
  2  5  1  0
  2  8  1  0
  3  4  3  0
  5  7  1  0
  5  6  1  0
  6  7  1  0
  8  9  1  0
  9 10  2  0
  9 11  1  0
 11 12  1  0
 12 16  1  0
 12 13  1  0
 13 14  1  0
 14 15  1  0
 15 16  1  0
 16 17  1  0
 17 18  2  0
 17 19  1  0
 19 20  1  0
 20 25  2  0
 20 21  1  0
 21 22  2  0
 22 23  1  0
 22 27  1  0
 23 24  2  0
 24 25  1  0
 24 26  1  0
  1 28  1  0
  1 29  1  0
  1 30  1  0
  5 31  1  0
  6 32  1  0
  6 33  1  0
  7 34  1  0
  7 35  1  0
 11 36  1  0
 11 37  1  0
 13 38  1  0
 13 39  1  0
 14 40  1  0
 14 41  1  0
 15 42  1  0
 15 43  1  0
 16 44  1  0
 19 45  1  0
 21 46  1  0
 23 47  1  0
 25 48  1  0
M  CHG  1   8  -1
M  END
> <Name>
ZINC26463196

> <reference>
BDB50073118

> <quality>
0.724

> <status>
decoy

$$$$
ZINC14160553
  SciTegic06061311253D

 48 50  0  0  0  0            999 V2000
   -1.7582   10.0912    0.1531 C   0  0
   -2.9790    9.2295    0.3483 C   0  0
   -4.2056    9.8061    0.6385 C   0  0
   -5.3032    8.9770    0.8101 C   0  0
   -5.1479    7.6687    0.6924 N   0  0
   -3.9616    7.1499    0.4143 C   0  0
   -2.8922    7.9133    0.2494 N   0  0
   -3.8350    5.7722    0.2985 N   0  0
   -2.6005    5.2119    0.1085 C   0  0
   -2.4860    3.9054   -0.0569 N   0  0
   -1.2726    3.3350   -0.0695 C   0  0
   -0.3221    3.3135    1.3542 S   0  0
   -0.8012    2.7787   -1.2029 N   0  0
    0.4214    2.0989   -1.1925 C   0  0
    1.5362    2.6808   -0.6034 C   0  0
    2.7434    2.0098   -0.6002 C   0  0
    2.8433    0.7593   -1.1823 C   0  0
    1.7357    0.1761   -1.7696 C   0  0
    0.5246    0.8422   -1.7768 C   0  0
   -0.8656    0.1101   -2.5152 Cl  0  0
   -1.4877    6.0023    0.0899 N   0  0
   -0.8306    6.4150    1.3402 C   0  0
    0.6691    6.1003    1.2198 C   0  0
    1.1750    6.6815    0.0156 O   0  0
    0.5873    6.1590   -1.1783 C   0  0
   -0.9134    6.4720   -1.1809 C   0  0
   -6.6568    9.5590    1.1262 C   0  0
   -1.3799    9.8279   -0.8457 H   0  0
   -1.0273    9.7209    0.8871 H   0  0
   -1.9535   11.1685    0.2593 H   0  0
   -4.3059   10.8976    0.7306 H   0  0
   -4.6699    5.1717    0.3555 H   0  0
   -1.3411    2.8541   -2.0768 H   0  0
    1.4579    3.6752   -0.1397 H   0  0
    3.6267    2.4707   -0.1340 H   0  0
    3.8061    0.2274   -1.1781 H   0  0
    1.8184   -0.8188   -2.2315 H   0  0
   -1.2579    5.8565    2.1861 H   0  0
   -0.9699    7.4954    1.4926 H   0  0
    1.2036    6.5221    2.0837 H   0  0
    0.8158    5.0105    1.1910 H   0  0
    1.0605    6.6249   -2.0552 H   0  0
    0.7345    5.0695   -1.2152 H   0  0
   -1.3971    5.9509   -2.0202 H   0  0
   -1.0631    7.5576   -1.2766 H   0  0
   -6.8578   10.2668    0.3085 H   0  0
   -6.5023   10.1542    2.0383 H   0  0
   -7.4523    8.8079    1.2408 H   0  0
  1  2  1  0
  2  7  2  0
  2  3  1  0
  3  4  2  0
  4  5  1  0
  4 27  1  0
  5  6  2  0
  6  7  1  0
  6  8  1  0
  8  9  1  0
  9 10  2  0
  9 21  1  0
 10 11  1  0
 11 12  2  0
 11 13  1  0
 13 14  1  0
 14 19  2  0
 14 15  1  0
 15 16  2  0
 16 17  1  0
 17 18  2  0
 18 19  1  0
 19 20  1  0
 21 26  1  0
 21 22  1  0
 22 23  1  0
 23 24  1  0
 24 25  1  0
 25 26  1  0
  1 28  1  0
  1 29  1  0
  1 30  1  0
  3 31  1  0
  8 32  1  0
 13 33  1  0
 15 34  1  0
 16 35  1  0
 17 36  1  0
 18 37  1  0
 22 38  1  0
 22 39  1  0
 23 40  1  0
 23 41  1  0
 25 42  1  0
 25 43  1  0
 26 44  1  0
 26 45  1  0
 27 46  1  0
 27 47  1  0
 27 48  1  0
M  END
> <Name>
ZINC14160553

> <reference>
BDB50073118

> <quality>
0.722

> <status>
decoy

$$$$
ZINC11423724
  SciTegic06061311253D

 58 61  0  0  0  0            999 V2000
    4.5105    3.6386   16.9394 C   0  0
    4.1869    3.9612   15.4792 C   0  0  1  0  0  0
    4.9874    3.0338   14.5607 C   0  0
    4.6141    3.3198   13.1044 C   0  0
    3.1743    3.1022   12.9150 N   0  0
    2.3848    4.0146   13.7520 C   0  0
    2.6915    3.7494   15.2277 C   0  0
    2.8240    3.2258   11.5766 C   0  0
    3.6407    3.4983   10.5889 N   0  0
    2.8922    3.5336    9.4051 N   0  0
    1.6422    3.2813    9.7088 C   0  0
    1.5667    3.0895   11.0599 N   0  0
    0.3514    2.7874   11.8202 C   0  0  2  0  0  0
   -0.8585    2.2678   11.0410 C   0  0
   -0.8625    3.6925   11.6007 C   0  0
    0.2950    3.2097    8.5755 S   0  0
    1.0563    3.5578    6.9662 C   0  0
   -0.0011    3.5267    5.8929 C   0  0
   -1.1543    3.2928    6.1848 O   0  0
    0.3352    3.7589    4.6086 N   0  0
   -0.6105    3.7311    3.6488 C   0  0
   -1.7666    3.4966    3.9414 O   0  0
   -0.2742    3.9633    2.3645 N   0  0
   -1.3022    3.9331    1.3211 C   0  0  2  0  0  0
   -0.6727    3.6012   -0.0476 C   0  0
   -1.4141    4.4540   -1.0920 C   0  0
   -2.4694    5.2747   -0.3220 C   0  0
   -1.9179    5.3414    1.1238 C   0  0
    4.2485    2.5914   17.1510 H   0  0
    3.9310    4.3012   17.5991 H   0  0
    5.5848    3.7907   17.1203 H   0  0
    4.4526    5.0080   15.2706 H   0  0
    6.0631    3.2126   14.7053 H   0  0
    4.7528    1.9861   14.8001 H   0  0
    5.1762    2.6455   12.4415 H   0  0
    4.8617    4.3635   12.8606 H   0  0
    1.3133    3.8499   13.5658 H   0  0
    2.6438    5.0549   13.5056 H   0  0
    2.1109    4.4436   15.8531 H   0  0
    2.4201    2.7132   15.4781 H   0  0
    0.9172    2.4439   12.6987 H   0  0
   -1.4740    1.5930   11.6540 H   0  0
   -0.6679    2.2615    9.9577 H   0  0
   -0.6748    4.4354   10.8115 H   0  0
   -1.4794    3.7666   12.5084 H   0  0
    1.8208    2.7973    6.7489 H   0  0
    1.5250    4.5527    6.9897 H   0  0
    1.3150    3.9576    4.3606 H   0  0
    0.7056    4.1620    2.1165 H   0  0
   -2.0463    3.1871    1.6369 H   0  0
   -0.8095    2.5334   -0.2735 H   0  0
    0.3952    3.8648   -0.0412 H   0  0
   -1.9115    3.8008   -1.8241 H   0  0
   -0.7062    5.1319   -1.5913 H   0  0
   -2.5441    6.2874   -0.7450 H   0  0
   -3.4379    4.7533   -0.3330 H   0  0
   -2.7394    5.5018    1.8376 H   0  0
   -1.1379    6.1135    1.1983 H   0  0
  1  2  1  0
  2  7  1  0
  2  3  1  0
  3  4  1  0
  4  5  1  0
  5  6  1  0
  5  8  1  0
  6  7  1  0
  8 12  1  0
  8  9  2  0
  9 10  1  0
 10 11  2  0
 11 12  1  0
 11 16  1  0
 12 13  1  0
 13 15  1  0
 13 14  1  0
 14 15  1  0
 16 17  1  0
 17 18  1  0
 18 19  2  0
 18 20  1  0
 20 21  1  0
 21 22  2  0
 21 23  1  0
 23 24  1  0
 24 28  1  0
 24 25  1  0
 25 26  1  0
 26 27  1  0
 27 28  1  0
  1 29  1  0
  1 30  1  0
  1 31  1  0
  2 32  1  0
  3 33  1  0
  3 34  1  0
  4 35  1  0
  4 36  1  0
  6 37  1  0
  6 38  1  0
  7 39  1  0
  7 40  1  0
 13 41  1  0
 14 42  1  0
 14 43  1  0
 15 44  1  0
 15 45  1  0
 17 46  1  0
 17 47  1  0
 20 48  1  0
 23 49  1  0
 24 50  1  0
 25 51  1  0
 25 52  1  0
 26 53  1  0
 26 54  1  0
 27 55  1  0
 27 56  1  0
 28 57  1  0
 28 58  1  0
M  END
> <Name>
ZINC11423724

> <reference>
BDB50073118

> <quality>
0.720

> <status>
decoy

$$$$
ZINC25535737
  SciTegic06061311253D

 46 48  0  0  1  0            999 V2000
   -0.0021   -0.8724   -2.6942 C   0  0
   -0.2421   -1.6008   -3.8438 C   0  0
    0.5229   -2.7198   -4.1260 C   0  0
    1.5316   -3.1042   -3.2589 C   0  0
    1.7737   -2.3707   -2.1130 C   0  0
    1.0090   -1.2538   -1.8320 C   0  0
    1.2738   -0.4551   -0.5818 C   0  0  1  0  0  0
    2.0918    0.8067   -0.9286 C   0  0
    1.4740    1.8869   -0.0019 C   0  0
   -0.0179    1.4700    0.0101 C   0  0
    0.0021   -0.0041    0.0020 N   0  0
   -0.9822   -0.8055    0.4552 C   0  0
   -0.8572   -2.0105    0.3991 O   0  0
   -2.2381   -0.2042    1.0316 C   0  0
   -3.3614   -1.5312    1.5493 S   0  0
   -4.7622   -0.6774    2.1920 C   0  0
   -4.7839    0.7154    2.2004 C   0  0
   -5.8669    1.3825    2.6973 C   0  0
   -6.9591    0.6686    3.2000 C   0  0
   -6.9402   -0.7296    3.1929 C   0  0
   -5.8484   -1.3965    2.6856 C   0  0
   -5.8257   -2.8764    2.6702 N   0  0
   -6.7757   -3.5046    3.1019 O   0  0
   -4.8570   -3.4661    2.2257 O   0  0
   -8.1286    1.3889    3.7372 C   0  0
   -9.0778    0.7669    4.1740 O   0  0
   -8.1453    2.7366    3.7438 N   0  0
    0.2849   -3.4364   -5.2464 F   0  0
   -0.6158    0.0112   -2.4651 H   0  0
   -1.0406   -1.2917   -4.5344 H   0  0
    2.1400   -3.9931   -3.4821 H   0  0
    2.5752   -2.6757   -1.4241 H   0  0
    1.8230   -1.0944    0.1251 H   0  0
    3.1523    0.6538   -0.6799 H   0  0
    1.9429    1.0807   -1.9835 H   0  0
    1.5885    2.8863   -0.4469 H   0  0
    1.9002    1.8137    1.0095 H   0  0
   -0.5037    1.8364    0.9265 H   0  0
   -0.5220    1.8460   -0.8924 H   0  0
   -1.9811    0.4181    1.9015 H   0  0
   -2.7319    0.4167    0.2696 H   0  0
   -3.9261    1.2796    1.8056 H   0  0
   -5.8801    2.4824    2.7021 H   0  0
   -7.7955   -1.2948    3.5916 H   0  0
   -7.3414    3.2635    3.3737 H   0  0
   -8.9620    3.2397    4.1190 H   0  0
  1  6  2  0
  1  2  1  0
  2  3  2  0
  3  4  1  0
  3 28  1  0
  4  5  2  0
  5  6  1  0
  6  7  1  0
  7 11  1  0
  7  8  1  0
  8  9  1  0
  9 10  1  0
 10 11  1  0
 11 12  1  0
 12 13  2  0
 12 14  1  0
 14 15  1  0
 15 16  1  0
 16 21  2  0
 16 17  1  0
 17 18  2  0
 18 19  1  0
 19 20  2  0
 19 25  1  0
 20 21  1  0
 21 22  1  0
 22 23  2  0
 22 24  2  0
 25 26  2  0
 25 27  1  0
  1 29  1  0
  2 30  1  0
  4 31  1  0
  5 32  1  0
  7 33  1  0
  8 34  1  0
  8 35  1  0
  9 36  1  0
  9 37  1  0
 10 38  1  0
 10 39  1  0
 14 40  1  0
 14 41  1  0
 17 42  1  0
 18 43  1  0
 20 44  1  0
 27 45  1  0
 27 46  1  0
M  END
> <Name>
ZINC25535737

> <reference>
BDB50073118

> <quality>
0.712

> <status>
decoy

$$$$
ZINC31245639
  SciTegic06061311253D

 53 56  0  0  0  0            999 V2000
   -4.8026    5.2919    1.2282 C   0  0
   -5.7402    6.3041    1.1729 C   0  0
   -5.4165    7.5186    0.5858 C   0  0
   -4.1490    7.7192    0.0590 C   0  0
   -3.2083    6.7101    0.1190 C   0  0
   -3.5316    5.4940    0.7066 C   0  0
   -2.5782    4.4703    0.7679 N   0  0
   -1.2795    4.7699    0.9680 C   0  0
   -0.9226    5.9328    1.0091 O   0  0
   -0.2964    3.6949    1.1363 C   0  0
    1.0570    3.8537    1.3468 C   0  0
    1.6098    2.5733    1.4501 C   0  0
    0.6068    1.6747    1.3042 C   0  0
   -0.5557    2.3433    1.1070 N   0  0
    3.3093    2.1960    1.7219 S   0  0
    3.8816    3.3326    2.3542 O   0  0
    3.3496    0.8999    2.3031 O   0  0
    4.0269    2.0703    0.2347 N   0  0
    4.1486    0.8372   -0.5564 C   0  0
    4.9065    1.1966   -1.8517 C   0  0
    5.6717    2.4874   -1.4572 C   0  0
    4.6550    3.1752   -0.5123 C   0  0
   -6.3423    8.5127    0.5263 O   0  0
   -5.9819    9.6924   -0.1951 C   0  0  2  0  0  0
   -5.2376   10.6734    0.7342 C   0  0
   -5.7340   12.0711    0.2856 C   0  0
   -7.2292   11.8187   -0.0300 C   0  0
   -7.2475   10.4203   -0.6811 C   0  0
   -5.0624    4.3257    1.6853 H   0  0
   -6.7440    6.1474    1.5945 H   0  0
   -3.8932    8.6824   -0.4067 H   0  0
   -2.2032    6.8694   -0.2985 H   0  0
   -2.8694    3.4882    0.6601 H   0  0
    1.5996    4.8078    1.4197 H   0  0
    0.7176    0.5809    1.3399 H   0  0
   -1.4793    1.9119    0.9597 H   0  0
    3.1485    0.4535   -0.8064 H   0  0
    4.7180    0.0857    0.0101 H   0  0
    5.6167    0.3980   -2.1121 H   0  0
    4.1959    1.4092   -2.6640 H   0  0
    5.8537    3.1125   -2.3438 H   0  0
    6.5925    2.2354   -0.9108 H   0  0
    5.1816    3.8497    0.1789 H   0  0
    3.8976    3.7122   -1.1022 H   0  0
   -5.3484    9.3892   -1.0417 H   0  0
   -4.1514   10.5914    0.5812 H   0  0
   -5.5194   10.4906    1.7817 H   0  0
   -5.6355   12.7933    1.1095 H   0  0
   -5.2025   12.3923   -0.6223 H   0  0
   -7.5992   12.5716   -0.7415 H   0  0
   -7.8162   11.8103    0.9002 H   0  0
   -8.1435    9.8703   -0.3575 H   0  0
   -7.2244   10.5187   -1.7764 H   0  0
  1  6  2  0
  1  2  1  0
  2  3  2  0
  3  4  1  0
  3 23  1  0
  4  5  2  0
  5  6  1  0
  6  7  1  0
  7  8  1  0
  8  9  2  0
  8 10  1  0
 10 14  1  0
 10 11  2  0
 11 12  1  0
 12 13  2  0
 12 15  1  0
 13 14  1  0
 15 16  2  0
 15 17  2  0
 15 18  1  0
 18 22  1  0
 18 19  1  0
 19 20  1  0
 20 21  1  0
 21 22  1  0
 23 24  1  0
 24 28  1  0
 24 25  1  0
 25 26  1  0
 26 27  1  0
 27 28  1  0
  1 29  1  0
  2 30  1  0
  4 31  1  0
  5 32  1  0
  7 33  1  0
 11 34  1  0
 13 35  1  0
 14 36  1  0
 19 37  1  0
 19 38  1  0
 20 39  1  0
 20 40  1  0
 21 41  1  0
 21 42  1  0
 22 43  1  0
 22 44  1  0
 24 45  1  0
 25 46  1  0
 25 47  1  0
 26 48  1  0
 26 49  1  0
 27 50  1  0
 27 51  1  0
 28 52  1  0
 28 53  1  0
M  END
> <Name>
ZINC31245639

> <reference>
BDB50073118

> <quality>
0.711

> <status>
decoy

$$$$
ZINC17168698
  SciTegic06061311253D

 47 50  0  0  0  0            999 V2000
   -3.9956   -0.6854   -1.1299 C   0  0
   -2.9584    0.2337   -1.1781 C   0  0
   -2.4216    0.6862    0.0173 C   0  0
   -2.9417    0.2178    1.2092 C   0  0
   -3.9318   -0.6530    1.2171 N   0  0
   -4.4631   -1.1092    0.0995 C   0  0
   -1.2896    1.6810    0.0173 C   0  0
   -0.0111    0.9658    0.0074 N   0  0
    1.1468    1.6555    0.0000 C   0  0
    1.1304    2.8682    0.0067 O   0  0
    2.4620    0.9199   -0.0165 C   0  0
    3.8246    2.1173   -0.0231 S   0  0
    5.3160    1.0849   -0.0429 C   0  0
    6.5377    1.9672   -0.0498 C   0  0
    7.7707    1.3987   -0.0646 N   0  0
    8.8879    2.1495   -0.0711 C   0  0
    9.9876    1.6239   -0.0843 O   0  0
    8.7626    3.5774   -0.0627 C   0  0
    9.8251    4.5821   -0.0668 C   0  0
    9.4434    5.8767   -0.0563 C   0  0
    7.6714    5.8329   -0.0408 S   0  0
    7.4490    4.0721   -0.0481 C   0  0
    6.3915    3.2653   -0.0469 N   0  0
   10.3302    7.0843   -0.0577 C   0  0
   11.7550    6.6393    0.3019 C   0  0
   12.1161    5.4159   -0.5456 C   0  0
   11.3041    4.2055   -0.0828 C   0  0
   -4.4406   -1.0722   -2.0585 H   0  0
   -2.5708    0.5952   -2.1420 H   0  0
   -2.5248    0.5756    2.1622 H   0  0
   -5.2879   -1.8355    0.1465 H   0  0
   -1.3511    2.3081    0.9189 H   0  0
   -1.3603    2.3171   -0.8774 H   0  0
    0.0029   -0.0641    0.0061 H   0  0
    2.5379    0.2839    0.8778 H   0  0
    2.5215    0.2930   -0.9184 H   0  0
    5.3313    0.4454    0.8520 H   0  0
    5.3148    0.4544   -0.9443 H   0  0
    5.4442    3.6697   -0.0436 H   0  0
    9.9711    7.8086    0.6883 H   0  0
   10.3285    7.5429   -1.0575 H   0  0
   12.4609    7.4557    0.0892 H   0  0
   11.8014    6.3745    1.3685 H   0  0
   13.1890    5.1985   -0.4376 H   0  0
   11.8918    5.6237   -1.6023 H   0  0
   11.4645    3.3679   -0.7776 H   0  0
   11.6213    3.9152    0.9297 H   0  0
  1  6  2  0
  1  2  1  0
  2  3  2  0
  3  4  1  0
  3  7  1  0
  4  5  2  0
  5  6  1  0
  7  8  1  0
  8  9  1  0
  9 10  2  0
  9 11  1  0
 11 12  1  0
 12 13  1  0
 13 14  1  0
 14 23  1  0
 14 15  2  0
 15 16  1  0
 16 17  2  0
 16 18  1  0
 18 22  2  0
 18 19  1  0
 19 27  1  0
 19 20  2  0
 20 21  1  0
 20 24  1  0
 21 22  1  0
 22 23  1  0
 24 25  1  0
 25 26  1  0
 26 27  1  0
  1 28  1  0
  2 29  1  0
  4 30  1  0
  6 31  1  0
  7 32  1  0
  7 33  1  0
  8 34  1  0
 11 35  1  0
 11 36  1  0
 13 37  1  0
 13 38  1  0
 23 39  1  0
 24 40  1  0
 24 41  1  0
 25 42  1  0
 25 43  1  0
 26 44  1  0
 26 45  1  0
 27 46  1  0
 27 47  1  0
M  END
> <Name>
ZINC17168698

> <reference>
BDB50073118

> <quality>
0.710

> <status>
decoy

$$$$
ZINC13551823
  SciTegic06061311253D

 44 46  0  0  0  0            999 V2000
   -2.4820    0.8526    0.0185 C   0  0
   -1.1873    1.6238    0.0165 C   0  0
   -1.2038    2.8368    0.0232 O   0  0
   -0.0111    0.9658    0.0074 N   0  0
    1.1867    1.6793   -0.0003 C   0  0
    2.4631    1.2082   -0.0150 C   0  0
    3.5054    2.0984   -0.0201 N   0  5
    3.2264    3.4429   -0.0102 C   0  0
    4.0633    4.4691   -0.0121 N   0  0
    3.6052    5.6750   -0.0014 N   0  0
    4.4315    6.6883   -0.0032 C   0  0
    3.9093    8.0629    0.0090 C   0  0
    2.5287    8.2890    0.0227 C   0  0
    2.0422    9.5791    0.0346 C   0  0
    2.9181   10.6549    0.0331 C   0  0
    4.2943   10.4383    0.0191 C   0  0
    4.7916    9.1488    0.0129 C   0  0
    5.1488   11.4963    0.0173 O   0  0
    6.5469   11.2010    0.0027 C   0  0
    2.4319   11.9248    0.0450 O   0  0
    1.0109   12.0754    0.0585 C   0  0
    1.4409    3.4465   -0.0011 S   0  0
    2.7216   -0.2400   -0.0247 C   0  0
    3.9310   -0.9094   -0.0398 C   0  0
    3.9159   -2.2880   -0.0458 C   0  0
    2.7261   -2.9387   -0.0369 C   0  0
    1.5553   -1.5917   -0.0123 S   0  0
   -3.0347    1.2049   -0.8649 H   0  0
   -3.0262    1.1952    0.9110 H   0  0
   -2.3372   -0.2378    0.0119 H   0  0
    0.0029   -0.0641    0.0061 H   0  0
    5.5173    6.5125   -0.0138 H   0  0
    1.8317    7.4380    0.0240 H   0  0
    0.9565    9.7558    0.0453 H   0  0
    5.8780    8.9767    0.0110 H   0  0
    6.7236   10.5855   -0.8917 H   0  0
    6.7400   10.5752    0.8865 H   0  0
    7.1729   12.1055    0.0021 H   0  0
    0.6513   11.5368    0.9476 H   0  0
    0.6355   11.5474   -0.8305 H   0  0
    0.6947   13.1289    0.0676 H   0  0
    4.8816   -0.3560   -0.0469 H   0  0
    4.8590   -2.8541   -0.0577 H   0  0
    2.5319   -4.0214   -0.0432 H   0  0
  1  2  1  0
  2  3  2  0
  2  4  1  0
  4  5  1  0
  5 22  1  0
  5  6  2  0
  6  7  1  0
  6 23  1  0
  7  8  1  0
  8  9  2  0
  8 22  1  0
  9 10  1  0
 10 11  2  0
 11 12  1  0
 12 17  2  0
 12 13  1  0
 13 14  2  0
 14 15  1  0
 15 16  2  0
 15 20  1  0
 16 17  1  0
 16 18  1  0
 18 19  1  0
 20 21  1  0
 23 27  1  0
 23 24  2  0
 24 25  1  0
 25 26  2  0
 26 27  1  0
  1 28  1  0
  1 29  1  0
  1 30  1  0
  4 31  1  0
 11 32  1  0
 13 33  1  0
 14 34  1  0
 17 35  1  0
 19 36  1  0
 19 37  1  0
 19 38  1  0
 21 39  1  0
 21 40  1  0
 21 41  1  0
 24 42  1  0
 25 43  1  0
 26 44  1  0
M  CHG  1   7  -1
M  END
> <Name>
ZINC13551823

> <reference>
BDB50073118

> <quality>
0.708

> <status>
decoy

$$$$
ZINC27918344
  SciTegic06061311253D

 41 43  0  0  0  0            999 V2000
   -1.8734    5.8976   -1.7050 C   0  0
   -0.9396    5.8853   -0.4930 C   0  0
   -0.2486    4.5955   -0.4220 N   0  0
    1.0962    4.4106   -0.3739 C   0  0
    1.3240    3.0735   -0.3152 C   0  0
    0.0804    2.4248   -0.3280 C   0  0
   -0.8575    3.3343   -0.3975 N   0  0
    2.5836    2.4494   -0.2523 N   0  0
    2.6678    1.1054   -0.1978 C   0  0
    1.6553    0.4321   -0.2029 O   0  0
    3.9899    0.4504   -0.1317 C   0  0
    5.1550    1.2206   -0.1314 C   0  0
    6.3858    0.6039   -0.0633 C   0  0
    6.4701   -0.7781   -0.0073 C   0  0
    5.3201   -1.5486   -0.0134 C   0  0
    4.0806   -0.9429   -0.0751 C   0  0
    2.6389   -1.9099   -0.0816 Cl  0  0
    8.0247   -1.5467    0.0704 Cl  0  0
    7.8560    1.5750   -0.0549 S   0  0
    7.4478    2.9309   -0.1741 O   0  0
    8.6441    1.1094    1.0320 O   0  0
    8.6923    1.2093   -1.4366 N   0  0
    8.1212    1.5340   -2.7461 C   0  0  2  0  0  0
    8.4291    0.5850   -3.9061 C   0  0
    9.0877    1.9649   -3.8511 C   0  0
   -2.6142    5.0905   -1.6066 H   0  0
   -1.2865    5.7458   -2.6229 H   0  0
   -2.3926    6.8659   -1.7589 H   0  0
   -0.1989    6.6925   -0.5924 H   0  0
   -1.5264    6.0371    0.4249 H   0  0
    1.8616    5.2006   -0.3812 H   0  0
   -0.0790    1.3372   -0.2867 H   0  0
    3.4413    3.0197   -0.2479 H   0  0
    5.0905    2.3174   -0.1854 H   0  0
    5.3937   -2.6452    0.0310 H   0  0
    9.6140    0.7536   -1.3754 H   0  0
    7.2045    1.9540   -2.3064 H   0  0
    7.6070    0.5602   -4.6365 H   0  0
    9.1292   -0.2077   -3.6034 H   0  0
   10.1347    1.8983   -3.5203 H   0  0
    8.6117    2.6665   -4.5519 H   0  0
  1  2  1  0
  2  3  1  0
  3  7  1  0
  3  4  1  0
  4  5  2  0
  5  6  1  0
  5  8  1  0
  6  7  2  0
  8  9  1  0
  9 10  2  0
  9 11  1  0
 11 16  2  0
 11 12  1  0
 12 13  2  0
 13 14  1  0
 13 19  1  0
 14 15  2  0
 14 18  1  0
 15 16  1  0
 16 17  1  0
 19 20  2  0
 19 21  2  0
 19 22  1  0
 22 23  1  0
 23 25  1  0
 23 24  1  0
 24 25  1  0
  1 26  1  0
  1 27  1  0
  1 28  1  0
  2 29  1  0
  2 30  1  0
  4 31  1  0
  6 32  1  0
  8 33  1  0
 12 34  1  0
 15 35  1  0
 22 36  1  0
 23 37  1  0
 24 38  1  0
 24 39  1  0
 25 40  1  0
 25 41  1  0
M  END
> <Name>
ZINC27918344

> <reference>
BDB50073118

> <quality>
0.706

> <status>
decoy

$$$$
ZINC29688538
  SciTegic06061311253D

 55 58  0  0  0  0            999 V2000
   -4.3922    1.0062    3.7053 C   0  0
   -5.6790    1.7888    3.6512 C   0  0
   -6.6120    1.6267    4.6009 C   0  0
   -7.9108    2.7424    4.1036 S   0  0
   -7.1653    3.3962    2.6336 C   0  0
   -5.9258    2.7227    2.5665 C   0  0
   -5.1020    3.0713    1.4611 C   0  0
   -5.5376    3.9657    0.5886 N   0  0
   -6.7142    4.5532    0.7114 C   0  0
   -7.5201    4.2758    1.7180 N   0  0
   -3.8630    2.4785    1.2968 N   0  0
   -3.8306    1.6550    0.0815 C   0  0
   -2.5001    0.9023    0.0090 C   0  0
   -1.3486    1.9114   -0.0050 C   0  0  1  0  0  0
   -1.4336    2.7884    1.2473 C   0  0
   -2.7950    3.4863    1.2839 C   0  0
   -0.0337    1.1751   -0.0158 C   0  0
   -0.0179   -0.0376   -0.0127 O   0  0
    1.1244    1.8641   -0.0346 N   0  0
    2.4025    1.1483   -0.0513 C   0  0
    3.5521    2.1576   -0.0708 C   0  0
    4.8302    1.4418   -0.0875 N   0  0
    5.9884    2.1309   -0.1063 C   0  0
    5.9725    3.3436   -0.1094 O   0  0
    7.3031    1.3945   -0.1234 C   0  0  2  0  0  0
    8.1782    1.4820    1.1286 C   0  0
    8.5825    2.2334   -0.1423 C   0  0
   -6.5719    0.7183    5.8026 C   0  0
   -3.5998    1.7690    3.6872 H   0  0
   -4.3471    0.4750    2.7431 H   0  0
   -4.3101    0.3291    4.5683 H   0  0
   -7.0289    5.2900   -0.0424 H   0  0
   -4.6592    0.9320    0.1063 H   0  0
   -3.9342    2.3007   -0.8030 H   0  0
   -2.4686    0.2977   -0.9094 H   0  0
   -2.4014    0.2456    0.8859 H   0  0
   -1.4198    2.5416   -0.9038 H   0  0
   -0.6349    3.5444    1.2224 H   0  0
   -1.3191    2.1610    2.1435 H   0  0
   -2.8638    4.1066    2.1897 H   0  0
   -2.9034    4.1240    0.3942 H   0  0
    1.1109    2.8940   -0.0372 H   0  0
    2.4826    0.5195    0.8477 H   0  0
    2.4572    0.5141   -0.9484 H   0  0
    3.4729    2.7865   -0.9698 H   0  0
    3.4997    2.7921    0.8263 H   0  0
    4.8437    0.4119   -0.0849 H   0  0
    6.9014    0.5741   -0.7362 H   0  0
    8.7791    0.5709    1.2657 H   0  0
    7.7443    2.1614    1.8770 H   0  0
    8.3619    3.3080   -0.0617 H   0  0
    9.3954    1.7170   -0.6739 H   0  0
   -5.6286    1.0210    6.2807 H   0  0
   -6.3652   -0.2575    5.3388 H   0  0
   -7.4457    0.7295    6.4707 H   0  0
  1  2  1  0
  2  6  1  0
  2  3  2  0
  3  4  1  0
  3 28  1  0
  4  5  1  0
  5 10  2  0
  5  6  1  0
  6  7  2  0
  7  8  1  0
  7 11  1  0
  8  9  2  0
  9 10  1  0
 11 16  1  0
 11 12  1  0
 12 13  1  0
 13 14  1  0
 14 15  1  0
 14 17  1  0
 15 16  1  0
 17 18  2  0
 17 19  1  0
 19 20  1  0
 20 21  1  0
 21 22  1  0
 22 23  1  0
 23 24  2  0
 23 25  1  0
 25 27  1  0
 25 26  1  0
 26 27  1  0
  1 29  1  0
  1 30  1  0
  1 31  1  0
  9 32  1  0
 12 33  1  0
 12 34  1  0
 13 35  1  0
 13 36  1  0
 14 37  1  0
 15 38  1  0
 15 39  1  0
 16 40  1  0
 16 41  1  0
 19 42  1  0
 20 43  1  0
 20 44  1  0
 21 45  1  0
 21 46  1  0
 22 47  1  0
 25 48  1  0
 26 49  1  0
 26 50  1  0
 27 51  1  0
 27 52  1  0
 28 53  1  0
 28 54  1  0
 28 55  1  0
M  END
> <Name>
ZINC29688538

> <reference>
BDB50073118

> <quality>
0.704

> <status>
decoy

$$$$
ZINC27319031
  SciTegic06061311253D

 38 39  0  0  0  0            999 V2000
   10.7362   -4.9057    2.7536 C   0  0
   10.6312   -4.3956    1.3149 C   0  0
   10.3585   -2.8901    1.3262 C   0  0
   10.2536   -2.3800   -0.1124 C   0  0
    9.9924   -0.9385   -0.1016 N   0  0
   11.0330   -0.0846   -0.1068 C   0  0
   12.1762   -0.5099   -0.1200 O   0  0
   10.7922    1.3073   -0.0965 C   0  0
    9.4965    1.7311   -0.0815 C   0  0
    8.4721    0.7539   -0.0771 C   0  0
    8.7774   -0.5242   -0.0824 N   0  0
    7.0539    1.1728   -0.0604 C   0  0
    6.7694    2.3545   -0.0505 O   0  0
    6.0770    0.2444   -0.0562 N   0  0
    4.7335    0.6413   -0.0404 N   0  0
    3.7565   -0.2872   -0.0362 C   0  0
    4.0415   -1.4705   -0.0462 O   0  0
    2.3517    0.1278   -0.0197 C   0  0
    1.2088   -0.6570   -0.0130 C   0  0
    0.0021   -0.0041    0.0020 C   0  0
   -0.0164    1.3561    0.0095 C   0  0
    1.6659    1.7747   -0.0043 S   0  0
   -1.5140    2.5105    0.0232 Br  0  0
    9.7925   -4.7087    3.2834 H   0  0
   11.5596   -4.3885    3.2679 H   0  0
   10.9323   -5.9881    2.7462 H   0  0
   11.5754   -4.5927    0.7860 H   0  0
    9.8078   -4.9128    0.8005 H   0  0
    9.4142   -2.6923    1.8546 H   0  0
   11.1815   -2.3711    1.8394 H   0  0
   11.1978   -2.5771   -0.6412 H   0  0
    9.4303   -2.8972   -0.6269 H   0  0
   11.6242    2.0268   -0.1005 H   0  0
    9.2534    2.8039   -0.0730 H   0  0
    6.3181   -0.7569   -0.0646 H   0  0
    4.4924    1.6426   -0.0320 H   0  0
    1.2669   -1.7554   -0.0194 H   0  0
   -0.9389   -0.5737    0.0079 H   0  0
  1  2  1  0
  2  3  1  0
  3  4  1  0
  4  5  1  0
  5 11  1  0
  5  6  1  0
  6  7  2  0
  6  8  1  0
  8  9  2  0
  9 10  1  0
 10 11  2  0
 10 12  1  0
 12 13  2  0
 12 14  1  0
 14 15  1  0
 15 16  1  0
 16 17  2  0
 16 18  1  0
 18 22  1  0
 18 19  2  0
 19 20  1  0
 20 21  2  0
 21 22  1  0
 21 23  1  0
  1 24  1  0
  1 25  1  0
  1 26  1  0
  2 27  1  0
  2 28  1  0
  3 29  1  0
  3 30  1  0
  4 31  1  0
  4 32  1  0
  8 33  1  0
  9 34  1  0
 14 35  1  0
 15 36  1  0
 19 37  1  0
 20 38  1  0
M  END
> <Name>
ZINC27319031

> <reference>
BDB50073118

> <quality>
0.704

> <status>
decoy

$$$$
ZINC19600731
  SciTegic06061311253D

 47 49  0  0  0  0            999 V2000
   -2.2321    4.1612    5.1743 C   0  0
   -2.6493    2.9025    4.6418 O   0  0
   -2.0129    2.4640    3.5240 C   0  0
   -2.3676    1.2501    2.9535 C   0  0
   -1.7195    0.8068    1.8169 C   0  0
   -0.7181    1.5718    1.2479 C   0  0
   -0.3589    2.7793    1.8178 C   0  0
   -1.0078    3.2297    2.9511 C   0  0
   -0.0127    1.0858    0.0080 C   0  0
   -0.7416    1.5850   -1.2129 C   0  0
   -1.7359    2.2682   -1.0884 O   0  0
   -0.2884    1.2723   -2.4431 N   0  0
   -0.9661    1.7364   -3.5781 N   0  0
   -0.5129    1.4237   -4.8083 C   0  0
    0.4850    0.7381   -4.9332 O   0  0
   -1.2203    1.9082   -5.9931 C   0  0
   -0.7665    1.5950   -7.2252 C   0  0
   -1.4774    2.0819   -8.4161 C   0  0
   -1.0059    1.7636   -9.6945 C   0  0
   -1.6799    2.2191  -10.8122 C   0  0
   -2.8226    3.0021  -10.6652 C   0  0
   -3.2885    3.3241   -9.3948 C   0  0
   -2.6248    2.8703   -8.2755 C   0  0
   -4.7124    4.3015   -9.2183 Cl  0  0
   -3.4971    3.4579  -11.7550 O   0  0
   -2.7970    3.4317  -13.0034 C   0  0
   -2.1166    2.0634  -13.1446 C   0  0
   -1.2095    1.8993  -12.0491 O   0  0
   -2.3611    4.8967    4.3666 H   0  0
   -1.1550    4.0691    5.3779 H   0  0
   -2.7919    4.4480    6.0767 H   0  0
   -3.1642    0.6412    3.4058 H   0  0
   -2.0003   -0.1556    1.3642 H   0  0
    0.4442    3.3818    1.3684 H   0  0
   -0.7278    4.1946    3.3989 H   0  0
    0.0026   -0.0141    0.0008 H   0  0
    1.0191    1.4670   -0.0002 H   0  0
    0.5561    0.6922   -2.5488 H   0  0
   -1.8106    2.3165   -3.4724 H   0  0
   -2.1221    2.5278   -5.8802 H   0  0
    0.1353    0.9754   -7.3381 H   0  0
   -0.0994    1.1513   -9.8100 H   0  0
   -2.9966    3.1276   -7.2727 H   0  0
   -3.5082    3.5768  -13.8299 H   0  0
   -2.0354    4.2253  -13.0186 H   0  0
   -1.5615    2.0219  -14.0934 H   0  0
   -2.8764    1.2684  -13.1177 H   0  0
  1  2  1  0
  2  3  1  0
  3  8  2  0
  3  4  1  0
  4  5  2  0
  5  6  1  0
  6  7  2  0
  6  9  1  0
  7  8  1  0
  9 10  1  0
 10 11  2  0
 10 12  1  0
 12 13  1  0
 13 14  1  0
 14 15  2  0
 14 16  1  0
 16 17  2  0
 17 18  1  0
 18 23  2  0
 18 19  1  0
 19 20  2  0
 20 28  1  0
 20 21  1  0
 21 22  2  0
 21 25  1  0
 22 23  1  0
 22 24  1  0
 25 26  1  0
 26 27  1  0
 27 28  1  0
  1 29  1  0
  1 30  1  0
  1 31  1  0
  4 32  1  0
  5 33  1  0
  7 34  1  0
  8 35  1  0
  9 36  1  0
  9 37  1  0
 12 38  1  0
 13 39  1  0
 16 40  1  0
 17 41  1  0
 19 42  1  0
 23 43  1  0
 26 44  1  0
 26 45  1  0
 27 46  1  0
 27 47  1  0
M  END
> <Name>
ZINC19600731

> <reference>
BDB50073118

> <quality>
0.704

> <status>
decoy

$$$$
ZINC21948970
  SciTegic06061311253D

 48 51  0  0  1  0            999 V2000
   -5.1886    0.6178   -0.9965 C   0  0
   -4.9103    1.3902    0.2946 C   0  0  1  0  0  0
   -3.6025    2.1280    0.1666 C   0  0
   -3.5873    3.3407    0.1733 O   0  0
   -2.4499    1.4402    0.0446 N   0  0
   -1.2314    2.1194    0.0208 C   0  0
   -1.1374    3.3601   -0.5740 C   0  0
    0.0728    4.0455   -0.5962 C   0  0
    1.1955    3.5117   -0.0401 C   0  0
    1.1452    2.2476    0.5711 C   0  0
   -0.0827    1.5414    0.5994 C   0  0
   -0.1292    0.2771    1.2115 C   0  0
    1.0218   -0.2186    1.7568 C   0  0
    2.1965    0.5267    1.6954 C   0  0
    2.2361    1.7058    1.1234 N   0  0
   -5.9817    2.3415    0.5301 O   0  0
   -7.0288    1.9134    1.2526 C   0  0
   -7.0495    0.7814    1.6743 O   0  0
   -8.1787    2.8449    1.5377 C   0  0
   -9.2159    2.1252    2.3607 C   0  0
  -10.4337    2.8223    2.7748 C   0  0
  -10.6795    4.1501    2.4199 C   0  0
  -11.8360    4.7557    2.8252 C   0  0
  -12.7748    4.0670    3.5824 C   0  0
  -12.5615    2.7546    3.9432 C   0  0
  -11.3892    2.1162    3.5408 C   0  0
  -11.1033    0.7198    3.8923 C   0  0
  -11.8939    0.0724    4.5554 O   0  0
   -9.9480    0.1671    3.4674 N   0  0
   -9.0260    0.8869    2.7069 N   0  0
   -4.3776   -0.1034   -1.1756 H   0  0
   -5.2462    1.3209   -1.8405 H   0  0
   -6.1431    0.0790   -0.9037 H   0  0
   -4.8531    0.6862    1.1379 H   0  0
   -2.4686    0.4132   -0.0311 H   0  0
   -2.0279    3.8120   -1.0353 H   0  0
    0.1239    5.0363   -1.0714 H   0  0
    2.1424    4.0707   -0.0695 H   0  0
   -1.0663   -0.2977    1.2506 H   0  0
    1.0203   -1.2050    2.2436 H   0  0
    3.1154    0.1153    2.1385 H   0  0
   -8.6284    3.1750    0.5896 H   0  0
   -7.8124    3.7202    2.0943 H   0  0
   -9.9462    4.7060    1.8172 H   0  0
  -12.0258    5.8031    2.5478 H   0  0
  -13.6984    4.5748    3.8974 H   0  0
  -13.3093    2.2154    4.5433 H   0  0
   -9.7413   -0.8121    3.7109 H   0  0
  1  2  1  0
  2  3  1  0
  2 16  1  0
  3  4  2  0
  3  5  1  0
  5  6  1  0
  6 11  2  0
  6  7  1  0
  7  8  2  0
  8  9  1  0
  9 10  2  0
 10 15  1  0
 10 11  1  0
 11 12  1  0
 12 13  2  0
 13 14  1  0
 14 15  2  0
 16 17  1  0
 17 18  2  0
 17 19  1  0
 19 20  1  0
 20 30  2  0
 20 21  1  0
 21 26  2  0
 21 22  1  0
 22 23  2  0
 23 24  1  0
 24 25  2  0
 25 26  1  0
 26 27  1  0
 27 28  2  0
 27 29  1  0
 29 30  1  0
  1 31  1  0
  1 32  1  0
  1 33  1  0
  2 34  1  0
  5 35  1  0
  7 36  1  0
  8 37  1  0
  9 38  1  0
 12 39  1  0
 13 40  1  0
 14 41  1  0
 19 42  1  0
 19 43  1  0
 22 44  1  0
 23 45  1  0
 24 46  1  0
 25 47  1  0
 29 48  1  0
M  END
> <Name>
ZINC21948970

> <reference>
BDB50073118

> <quality>
0.704

> <status>
decoy

$$$$
ZINC06314913
  SciTegic06061311253D

 29 31  0  0  0  0            999 V2000
   -2.5055   -0.8091   -0.2094 C   0  0
   -1.0306   -1.0351    0.0019 C   0  0
   -0.0013   -0.0023    0.0725 C   0  0
   -0.0145    1.3909   -0.0200 C   0  0
    1.2017    2.0658    0.0984 C   0  0
    2.3762    1.3272    0.3041 C   0  0
    2.3539    0.0182    0.3860 N   0  0
    1.2228   -0.6724    0.2796 C   0  0
    0.9324   -2.0065    0.3272 N   0  0
   -0.4432   -2.1869    0.1551 N   0  0
    1.2510    3.5387    0.0088 C   0  0
    2.3232    4.1126    0.0137 O   0  0
    0.0003    4.3138   -0.0867 C   0  0
   -0.3937    4.8650   -1.3099 C   0  0
   -1.5642    5.5882   -1.3927 C   0  0
   -2.3541    5.7720   -0.2677 C   0  0
   -1.9765    5.2329    0.9469 C   0  0
   -0.8037    4.4974    1.0471 C   0  0
   -0.4344    3.9626    2.2382 O   0  5
   -2.9735    5.4698    2.3481 Cl  0  0
   -2.0522    6.2714   -2.9122 Cl  0  0
   -2.9555   -1.3233    0.6526 H   0  0
   -2.7237   -1.4364   -1.0863 H   0  0
   -2.8233    0.2382   -0.3199 H   0  0
   -0.9541    1.9396   -0.1812 H   0  0
    3.3358    1.8566    0.3987 H   0  0
    1.6192   -2.7611    0.4678 H   0  0
    0.2296    4.7217   -2.2049 H   0  0
   -3.2867    6.3504   -0.3430 H   0  0
  1  2  1  0
  2 10  2  0
  2  3  1  0
  3  8  1  0
  3  4  2  0
  4  5  1  0
  5  6  2  0
  5 11  1  0
  6  7  1  0
  7  8  2  0
  8  9  1  0
  9 10  1  0
 11 12  2  0
 11 13  1  0
 13 18  2  0
 13 14  1  0
 14 15  2  0
 15 16  1  0
 15 21  1  0
 16 17  2  0
 17 18  1  0
 17 20  1  0
 18 19  1  0
  1 22  1  0
  1 23  1  0
  1 24  1  0
  4 25  1  0
  6 26  1  0
  9 27  1  0
 14 28  1  0
 16 29  1  0
M  CHG  1  19  -1
M  END
> <Name>
ZINC06314913

> <reference>
BDB50056262

> <quality>
0.889

> <status>
decoy

$$$$
ZINC00089188
  SciTegic06061311253D

 27 30  0  0  0  0            999 V2000
   10.8643    3.0169   -0.0860 C   0  0
   10.7346    4.4002   -0.0767 C   0  0
    9.4749    4.9648   -0.0615 C   0  0
    8.3647    4.1483   -0.0558 C   0  0
    8.4667    2.7375   -0.0650 C   0  0
    9.7791    2.2002   -0.0801 C   0  0
    7.2409    2.0439   -0.0519 C   0  0
    6.0706    2.7366   -0.0423 C   0  0
    6.6132    4.4365   -0.0375 S   0  0
    4.6970    2.2138   -0.0319 C   0  0
    3.5820    2.9258   -0.0171 N   0  0
    2.5793    2.0242   -0.0124 C   0  0
    3.1224    0.8338   -0.0190 N   0  0
    4.3318    0.9208   -0.0355 O   0  0
    1.1257    2.3268    0.0038 C   0  0
   -0.0168    1.3849    0.0097 C   0  0
   -1.0518    2.1921    0.0181 N   0  0
   -0.6683    3.3381    0.0264 O   0  0
    0.5296    3.4979    0.0158 N   0  0
    0.0021   -0.0041    0.0020 N   0  0
    7.2238    0.3080   -0.0530 Cl  0  0
   11.8704    2.5723   -0.0984 H   0  0
   11.6289    5.0407   -0.0814 H   0  0
    9.3581    6.0586   -0.0540 H   0  0
    9.9198    1.1093   -0.0871 H   0  0
    0.9520   -0.4021   -0.0093 H   0  0
   -0.8363   -0.6024    0.0068 H   0  0
  1  6  1  0
  1  2  2  0
  2  3  1  0
  3  4  2  0
  4  9  1  0
  4  5  1  0
  5  6  2  0
  5  7  1  0
  7  8  2  0
  7 21  1  0
  8  9  1  0
  8 10  1  0
 10 14  1  0
 10 11  2  0
 11 12  1  0
 12 13  2  0
 12 15  1  0
 13 14  1  0
 15 19  2  0
 15 16  1  0
 16 17  2  0
 16 20  1  0
 17 18  1  0
 18 19  1  0
  1 22  1  0
  2 23  1  0
  3 24  1  0
  6 25  1  0
 20 26  1  0
 20 27  1  0
M  END
> <Name>
ZINC00089188

> <reference>
BDB50056262

> <quality>
0.867

> <status>
decoy

$$$$
ZINC05827205
  SciTegic06061311253D

 35 36  0  0  0  0            999 V2000
   -7.9033    0.7127   -1.5969 C   0  0
   -6.7551    1.6367   -2.0079 C   0  0  1  0  0  0
   -6.4776    2.6367   -0.8821 C   0  0
   -6.0562    1.8794    0.3572 C   0  0
   -6.6347    2.0337    1.4059 O   0  5
   -4.8877    0.9212    0.2454 C   0  0
   -5.1018    0.0886   -1.0025 C   0  0
   -4.9591   -1.1103   -0.9811 O   0  0
   -5.4997    0.8018   -2.2752 C   0  0
   -3.5998    1.6952    0.1300 C   0  0
   -3.6184    2.9079    0.1368 O   0  0
   -2.4273    1.0398    0.0192 N   0  0
   -1.2234    1.7538    0.0231 C   0  0
   -0.1473    1.3069   -0.7327 C   0  0
    1.0416    2.0095   -0.7231 C   0  0
    1.1601    3.1613    0.0347 C   0  0
    0.0873    3.6124    0.7852 C   0  0
   -1.1047    2.9124    0.7786 C   0  0
    0.2393    5.0581    1.7342 Cl  0  0
    2.6559    4.0424    0.0440 Cl  0  0
   -7.1426    2.3951   -3.2789 C   0  0
   -7.6264    0.1656   -0.6837 H   0  0
   -8.1062   -0.0044   -2.4060 H   0  0
   -8.8057    1.3116   -1.4046 H   0  0
   -5.6710    3.3196   -1.1872 H   0  0
   -7.3896    3.2131   -0.6676 H   0  0
   -5.7108    0.0612   -3.0606 H   0  0
   -4.6803    1.4608   -2.5982 H   0  0
   -2.4172    0.0136   -0.0683 H   0  0
   -0.2419    0.3937   -1.3387 H   0  0
    1.8952    1.6532   -1.3184 H   0  0
   -1.9583    3.2730    1.3714 H   0  0
   -8.0449    2.9949   -3.0890 H   0  0
   -7.3431    1.6782   -4.0887 H   0  0
   -6.3178    3.0598   -3.5754 H   0  0
  1  2  1  0
  2  9  1  0
  2  3  1  0
  2 21  1  0
  3  4  1  0
  4  5  1  0
  4  6  2  0
  6  7  1  0
  6 10  1  0
  7  8  2  0
  7  9  1  0
 10 11  2  0
 10 12  1  0
 12 13  1  0
 13 18  2  0
 13 14  1  0
 14 15  2  0
 15 16  1  0
 16 17  2  0
 16 20  1  0
 17 18  1  0
 17 19  1  0
  1 22  1  0
  1 23  1  0
  1 24  1  0
  3 25  1  0
  3 26  1  0
  9 27  1  0
  9 28  1  0
 12 29  1  0
 14 30  1  0
 15 31  1  0
 18 32  1  0
 21 33  1  0
 21 34  1  0
 21 35  1  0
M  CHG  1   5  -1
M  END
> <Name>
ZINC05827205

> <reference>
BDB50056262

> <quality>
0.847

> <status>
decoy

$$$$
ZINC01993866
  SciTegic06061311253D

 39 41  0  0  0  0            999 V2000
   -4.5592    9.5486   -0.6425 C   0  0
   -4.6608    8.0460   -0.5888 C   0  0
   -5.9079    7.4428   -0.5927 C   0  0
   -6.0122    6.0668   -0.5466 C   0  0
   -4.8592    5.2940   -0.4974 C   0  0
   -4.9217    3.8107   -0.4608 C   0  0
   -6.0402    3.1679   -0.2255 N   0  0
   -6.0512    1.7521   -0.2003 O   0  5
   -3.6514    3.1051   -0.7103 C   0  0
   -2.5036    3.8244   -0.6818 C   0  0
   -2.4784    5.1444   -0.4308 O   0  0
   -3.5959    5.8998   -0.4878 C   0  0
   -3.5106    7.2854   -0.5368 C   0  0
   -1.2276    3.1301   -0.9433 C   0  0
   -1.2188    1.7594   -1.2129 C   0  0
   -0.0256    1.1117   -1.4522 C   0  0
    1.1675    1.8200   -1.4360 C   0  0
    1.1657    3.1883   -1.1725 C   0  0
   -0.0264    3.8432   -0.9269 C   0  0
    2.3368    3.8795   -1.1574 O   0  0
    2.2605    5.2793   -0.8803 C   0  0
    2.3406    1.1777   -1.6772 O   0  0
   -7.3676    5.4081   -0.5507 C   0  0
   -3.9381    9.7646   -1.5243 H   0  0
   -3.9747    9.8303    0.2457 H   0  0
   -5.5340   10.0568   -0.6815 H   0  0
   -6.8167    8.0612   -0.6326 H   0  0
   -3.6360    2.0242   -0.9140 H   0  0
   -2.5262    7.7763   -0.5342 H   0  0
   -2.1639    1.1969   -1.2342 H   0  0
   -0.0193    0.0309   -1.6565 H   0  0
   -0.0293    4.9234   -0.7190 H   0  0
    1.7660    5.3744    0.0977 H   0  0
    1.5910    5.7089   -1.6401 H   0  0
    3.2458    5.7684   -0.8854 H   0  0
    2.2206    0.7501   -2.5620 H   0  0
   -7.8622    5.7816   -1.4595 H   0  0
   -7.8977    5.8435    0.3092 H   0  0
   -7.3305    4.3094   -0.5115 H   0  0
  1  2  1  0
  2 13  2  0
  2  3  1  0
  3  4  2  0
  4  5  1  0
  4 23  1  0
  5 12  2  0
  5  6  1  0
  6  7  2  0
  6  9  1  0
  7  8  1  0
  9 10  2  0
 10 11  1  0
 10 14  1  0
 11 12  1  0
 12 13  1  0
 14 19  2  0
 14 15  1  0
 15 16  2  0
 16 17  1  0
 17 18  2  0
 17 22  1  0
 18 19  1  0
 18 20  1  0
 20 21  1  0
  1 24  1  0
  1 25  1  0
  1 26  1  0
  3 27  1  0
  9 28  1  0
 13 29  1  0
 15 30  1  0
 16 31  1  0
 19 32  1  0
 21 33  1  0
 21 34  1  0
 21 35  1  0
 22 36  1  0
 23 37  1  0
 23 38  1  0
 23 39  1  0
M  CHG  1   8  -1
M  END
> <Name>
ZINC01993866

> <reference>
BDB50056262

> <quality>
0.846

> <status>
decoy

$$$$
ZINC16245330
  SciTegic06061311253D

 44 46  0  0  1  0            999 V2000
   -2.4616    4.2751    0.0466 C   0  0
   -1.1738    3.4926    0.0306 C   0  0
    0.0424    4.1722    0.0230 C   0  0
    1.2254    3.4967    0.0086 C   0  0
    1.2220    2.0941    0.0016 C   0  0
   -0.0170    1.4029    0.0098 C   0  0
   -1.2158    2.1308    0.0193 C   0  0
    0.0021   -0.0041    0.0020 C   0  0
    1.1677   -0.6160   -0.0123 N   0  0
    2.3123    0.0646   -0.0195 C   0  0
    2.3560    1.3827   -0.0125 N   0  0
    3.5030   -0.6391   -0.0346 N   0  0
    3.4881   -2.1040   -0.0423 C   0  0  2  0  0  0
    4.8167   -2.5922    0.2989 N   0  0
    5.6843   -3.0235   -0.6263 C   0  0
    6.7827   -3.4030   -0.2793 O   0  0
    5.3248   -3.0461   -2.0851 C   0  0  2  0  0  0
    3.8357   -2.9774   -2.2568 C   0  0
    3.2423   -3.4216   -3.5689 C   0  0
    5.8480   -4.3384   -2.7155 C   0  0
   -1.2823   -0.7924    0.0095 C   0  0
    2.5295    4.2518   -0.0004 C   0  0
    2.9584   -2.5652   -1.3739 N   0  0
   -3.0062    3.9199    0.9338 H   0  0
   -3.0191    3.9350   -0.8386 H   0  0
   -2.3144    5.3652    0.0548 H   0  0
    0.0475    5.2722    0.0287 H   0  0
   -2.1827    1.6062    0.0176 H   0  0
    4.4002   -0.1332   -0.0404 H   0  0
    2.8150   -2.5265    0.7182 H   0  0
    5.1002   -2.6065    1.2890 H   0  0
    5.7815   -2.1756   -2.5787 H   0  0
    3.5855   -4.4570   -3.7110 H   0  0
    3.7338   -2.8063   -4.3369 H   0  0
    2.1462   -3.3376   -3.6072 H   0  0
    5.3927   -5.2046   -2.2131 H   0  0
    6.9417   -4.3851   -2.6075 H   0  0
    5.5859   -4.3570   -3.7836 H   0  0
   -1.8378   -0.4285   -0.8674 H   0  0
   -1.8216   -0.4381    0.9003 H   0  0
   -1.1436   -1.8836    0.0023 H   0  0
    2.4904    4.8988    0.8884 H   0  0
    2.4735    4.9069   -0.8823 H   0  0
    3.4188    3.6045   -0.0119 H   0  0
  1  2  1  0
  2  7  1  0
  2  3  2  0
  3  4  1  0
  4  5  2  0
  4 22  1  0
  5 11  1  0
  5  6  1  0
  6  7  2  0
  6  8  1  0
  8  9  2  0
  8 21  1  0
  9 10  1  0
 10 11  2  0
 10 12  1  0
 12 13  1  0
 13 14  1  0
 13 23  1  0
 14 15  1  0
 15 16  2  0
 15 17  1  0
 17 18  1  0
 17 20  1  0
 18 19  1  0
 18 23  2  0
  1 24  1  0
  1 25  1  0
  1 26  1  0
  3 27  1  0
  7 28  1  0
 12 29  1  0
 13 30  1  0
 14 31  1  0
 17 32  1  0
 19 33  1  0
 19 34  1  0
 19 35  1  0
 20 36  1  0
 20 37  1  0
 20 38  1  0
 21 39  1  0
 21 40  1  0
 21 41  1  0
 22 42  1  0
 22 43  1  0
 22 44  1  0
M  END
> <Name>
ZINC16245330

> <reference>
BDB50056262

> <quality>
0.837

> <status>
decoy

$$$$
ZINC00477096
  SciTegic06061311253D

 34 37  0  0  0  0            999 V2000
   -0.7308    4.0004   -0.3106 C   0  0
    1.0557    3.7292   -0.4143 S   0  0
    1.1143    1.9837   -0.1812 C   0  0
    2.2892    1.3650   -0.1905 N   0  0
    2.3965    0.0587   -0.0214 C   0  0
    1.2198   -0.7121    0.1768 C   0  0
    1.1036   -2.1657    0.3845 C   0  0
   -0.1337   -2.6578    0.5521 C   0  0
   -1.2123   -1.2480    0.4431 S   0  0
    0.0097    0.0070    0.1747 C   0  0
   -0.0164    1.3136   -0.0009 N   0  0
   -0.1294   -4.1489    0.7594 C   0  0
    1.3318   -4.4843    1.1304 C   0  0
    2.0981   -3.3280    0.4584 C   0  0
    3.6465   -0.5542   -0.0378 N   0  0
    4.7404   -0.1506    0.6617 C   0  0
    5.7678   -1.0389    0.3573 C   0  0
    5.2412   -1.9868   -0.5513 C   0  0
    3.9905   -1.6943   -0.7722 N   0  0
    7.1055   -1.0001    0.8669 C   0  0
    8.1667   -0.9693    1.2711 N   0  0
    4.8174    0.9343    1.5121 N   0  0
   -1.1611    3.7699    0.6752 H   0  0
   -1.3025    3.5252   -1.1214 H   0  0
   -0.8747    5.0824   -0.4466 H   0  0
   -0.8000   -4.4179    1.5889 H   0  0
   -0.4087   -4.6626   -0.1723 H   0  0
    1.6288   -5.4474    0.6896 H   0  0
    1.4677   -4.4506    2.2215 H   0  0
    2.9643   -3.0444    1.0742 H   0  0
    2.4083   -3.6225   -0.5550 H   0  0
    5.7935   -2.8278   -0.9958 H   0  0
    3.9491    1.4790    1.6129 H   0  0
    5.6755    1.1952    2.0186 H   0  0
  1  2  1  0
  2  3  1  0
  3 11  1  0
  3  4  2  0
  4  5  1  0
  5  6  2  0
  5 15  1  0
  6 10  1  0
  6  7  1  0
  7 14  1  0
  7  8  2  0
  8  9  1  0
  8 12  1  0
  9 10  1  0
 10 11  2  0
 12 13  1  0
 13 14  1  0
 15 19  1  0
 15 16  1  0
 16 17  2  0
 16 22  1  0
 17 18  1  0
 17 20  1  0
 18 19  2  0
 20 21  3  0
  1 23  1  0
  1 24  1  0
  1 25  1  0
 12 26  1  0
 12 27  1  0
 13 28  1  0
 13 29  1  0
 14 30  1  0
 14 31  1  0
 18 32  1  0
 22 33  1  0
 22 34  1  0
M  END
> <Name>
ZINC00477096

> <reference>
BDB50056262

> <quality>
0.829

> <status>
decoy

$$$$
ZINC26274841
  SciTegic06061311253D

 34 36  0  0  1  0            999 V2000
    0.8295   -1.9979    1.2596 C   0  0
    0.9908   -0.4888    1.0661 C   0  0  2  0  0  0
    0.0021   -0.0041    0.0020 C   0  0
   -0.0187    1.5313    0.0105 C   0  0
    1.3959    2.0227   -0.0004 C   0  0
    2.5220    1.2968    0.2664 C   0  0
    3.7302    1.9704    0.1937 C   0  0
    3.7105    3.3128   -0.1389 C   0  0
    1.9632    3.6114   -0.3479 S   0  0
    4.8309    4.2456   -0.2829 C   0  0
    5.9707    3.8604   -0.0999 O   0  0
    4.5994    5.5304   -0.6180 N   0  0
    5.6570    6.4108   -0.7539 C   0  0
    6.9669    6.0986   -0.5703 N   0  5
    7.6975    7.2455   -0.8031 C   0  0
    6.7737    8.2368   -1.1185 C   0  0
    5.5512    7.6787   -1.0747 N   0  0
    7.0706    9.6021   -1.4324 C   0  0
    7.3062   10.6851   -1.6814 N   0  0
    9.1204    7.3885   -0.7287 C   0  0
   10.2492    7.5019   -0.6697 N   0  0
    2.4226   -0.1836    0.6251 C   0  0
    1.5321   -2.3476    2.0304 H   0  0
    1.0384   -2.5152    0.3116 H   0  0
   -0.2003   -2.2190    1.5769 H   0  0
    0.7858    0.0311    2.0136 H   0  0
   -1.0036   -0.3867    0.2304 H   0  0
    0.3211   -0.3622   -0.9879 H   0  0
   -0.5266    1.8898    0.9180 H   0  0
   -0.5437    1.8985   -0.8836 H   0  0
    4.6793    1.4519    0.3950 H   0  0
    3.6347    5.8565   -0.7729 H   0  0
    3.1175   -0.4103    1.4471 H   0  0
    2.6758   -0.7929   -0.2551 H   0  0
  1  2  1  0
  2 22  1  0
  2  3  1  0
  3  4  1  0
  4  5  1  0
  5  9  1  0
  5  6  2  0
  6  7  1  0
  6 22  1  0
  7  8  2  0
  8  9  1  0
  8 10  1  0
 10 11  2  0
 10 12  1  0
 12 13  1  0
 13 17  2  0
 13 14  1  0
 14 15  1  0
 15 16  2  0
 15 20  1  0
 16 17  1  0
 16 18  1  0
 18 19  3  0
 20 21  3  0
  1 23  1  0
  1 24  1  0
  1 25  1  0
  2 26  1  0
  3 27  1  0
  3 28  1  0
  4 29  1  0
  4 30  1  0
  7 31  1  0
 12 32  1  0
 22 33  1  0
 22 34  1  0
M  CHG  1  14  -1
M  END
> <Name>
ZINC26274841

> <reference>
BDB50056262

> <quality>
0.823

> <status>
decoy

$$$$
ZINC15015582
  SciTegic06061311253D

 38 41  0  0  0  0            999 V2000
    6.9160   13.1409    0.0105 C   0  0
    5.4213   12.9491    0.0221 C   0  0
    4.5861   14.0462    0.0358 C   0  0
    3.2098   13.8840    0.0471 C   0  0
    2.6596   12.6198    0.0448 C   0  0
    3.4915   11.5031    0.0310 C   0  0
    4.8856   11.6658    0.0195 C   0  0
    5.4727   10.4110    0.0076 N   0  0
    4.5100    9.4322    0.0108 C   0  0
    3.2428   10.0512    0.0253 C   0  0
    2.1513    9.3002    0.0309 N   0  0
    2.2513    8.0151    0.0188 N   0  0
    3.4337    7.4092    0.0102 C   0  0
    4.5635    8.1040    0.0036 N   0  0
    3.4875    6.0250    0.0022 N   0  5
    2.3024    5.2778    0.0090 N   0  0
    2.3529    3.9803    0.0015 C   0  0
    1.1063    3.1944    0.0087 C   0  0
    1.1664    1.7985    0.0006 C   0  0
   -0.0126    1.0758    0.0080 C   0  0
   -1.2158    1.7691    0.0173 C   0  0
   -1.2033    3.1516    0.0306 C   0  0
   -0.0673    3.8186    0.0233 N   0  0
   -2.5077    3.9062    0.0466 C   0  0
    7.2666   12.5999   -0.8808 H   0  0
    7.2816   12.5900    0.8896 H   0  0
    7.2298   14.1952    0.0137 H   0  0
    5.0159   15.0588    0.0378 H   0  0
    2.5540   14.7671    0.0579 H   0  0
    1.5669   12.4937    0.0538 H   0  0
    6.4879   10.2370   -0.0023 H   0  0
    3.3261    3.4678   -0.0102 H   0  0
    2.1375    1.2819   -0.0115 H   0  0
    0.0023   -0.0241    0.0066 H   0  0
   -2.1707    1.2230    0.0141 H   0  0
   -3.0449    3.5369    0.9326 H   0  0
   -3.0567    3.5540   -0.8391 H   0  0
   -2.3855    4.9993    0.0564 H   0  0
  1  2  1  0
  2  7  2  0
  2  3  1  0
  3  4  2  0
  4  5  1  0
  5  6  2  0
  6 10  1  0
  6  7  1  0
  7  8  1  0
  8  9  1  0
  9 14  2  0
  9 10  1  0
 10 11  2  0
 11 12  1  0
 12 13  2  0
 13 14  1  0
 13 15  1  0
 15 16  1  0
 16 17  2  0
 17 18  1  0
 18 23  2  0
 18 19  1  0
 19 20  2  0
 20 21  1  0
 21 22  2  0
 22 23  1  0
 22 24  1  0
  1 25  1  0
  1 26  1  0
  1 27  1  0
  3 28  1  0
  4 29  1  0
  5 30  1  0
  8 31  1  0
 17 32  1  0
 19 33  1  0
 20 34  1  0
 21 35  1  0
 24 36  1  0
 24 37  1  0
 24 38  1  0
M  CHG  1  15  -1
M  END
> <Name>
ZINC15015582

> <reference>
BDB50056262

> <quality>
0.812

> <status>
decoy

$$$$
ZINC06091659
  SciTegic06061311253D

 28 29  0  0  0  0            999 V2000
   -0.0426    4.2437    0.0233 C   0  0
   -1.2346    3.5426    0.0318 C   0  0
   -1.2274    2.1603    0.0200 C   0  0
   -0.0094    1.4716    0.0095 C   0  0
    1.1904    2.1890    0.0005 C   0  0
    1.1654    3.5694    0.0075 C   0  0
    2.7080    1.3463   -0.0187 Cl  0  0
    0.0084   -0.0037    0.0016 C   0  0
    0.0269   -0.6168    1.0508 O   0  0
    0.0042   -0.6714   -1.1691 N   0  5
    0.0205   -2.0190   -1.1763 C   0  0
    0.0390   -2.6322   -0.1271 O   0  0
    0.0163   -2.6868   -2.3471 N   0  0
    0.1404   -4.0756   -2.3580 C   0  0
    0.2425   -4.7482   -3.5706 C   0  0
    0.3712   -6.1257   -3.5675 C   0  0
    0.3818   -6.7875   -2.3459 C   0  0
    0.2700   -6.0552   -1.1795 C   0  0
    0.1544   -4.7413   -1.2144 N   0  0
    0.5344   -8.5157   -2.2856 Cl  0  0
   -2.3926    1.4766    0.0231 F   0  0
   -0.0550    5.3436    0.0291 H   0  0
   -2.1908    4.0862    0.0480 H   0  0
    2.1089    4.1349    0.0005 H   0  0
   -0.0786   -2.1712   -3.2337 H   0  0
    0.2212   -4.1925   -4.5197 H   0  0
    0.4630   -6.6842   -4.5107 H   0  0
    0.2775   -6.5741   -0.2096 H   0  0
  1  6  2  0
  1  2  1  0
  2  3  2  0
  3  4  1  0
  3 21  1  0
  4  5  2  0
  4  8  1  0
  5  6  1  0
  5  7  1  0
  8  9  2  0
  8 10  1  0
 10 11  1  0
 11 12  2  0
 11 13  1  0
 13 14  1  0
 14 19  2  0
 14 15  1  0
 15 16  2  0
 16 17  1  0
 17 18  2  0
 17 20  1  0
 18 19  1  0
  1 22  1  0
  2 23  1  0
  6 24  1  0
 13 25  1  0
 15 26  1  0
 16 27  1  0
 18 28  1  0
M  CHG  1  10  -1
M  END
> <Name>
ZINC06091659

> <reference>
BDB50056262

> <quality>
0.805

> <status>
decoy

$$$$
ZINC13690518
  SciTegic06061311253D

 31 33  0  0  0  0            999 V2000
    0.2139   -2.1690    2.2760 C   0  0
    0.7650   -2.8943    1.0755 C   0  0
    1.2467   -2.1639   -0.0219 C   0  0
    1.7561   -2.8584   -1.1175 C   0  0
    1.7611   -4.2221   -1.0810 N   0  0
    1.2749   -4.8846    0.0108 C   0  0
    0.7879   -4.2085    1.0585 N   0  0
    1.4044   -6.1848   -0.2306 N   0  0
    1.9508   -6.3669   -1.4264 C   0  0
    2.1867   -5.2048   -1.9843 N   0  0
    2.2542   -7.7059   -2.0478 C   0  0  1  0  0  0
    3.3840   -8.2590   -1.4354 F   0  0
    1.1615   -8.5611   -1.8694 F   0  0
    2.4988   -7.5408   -3.4153 F   0  0
    2.2435   -2.1838   -2.2113 N   0  0
    1.2199   -0.6813   -0.0132 C   0  0
    2.4129    0.0401   -0.0207 C   0  0
    2.3826    1.4196   -0.0130 C   0  0
    1.1714    2.0877    0.0021 C   0  0
   -0.0167    1.3772    0.0096 C   0  0
    0.0021   -0.0041    0.0020 C   0  0
   -1.5324    2.2234    0.0214 Cl  0  0
    0.8050   -2.5313    3.1300 H   0  0
   -0.8106   -2.5500    2.3997 H   0  0
    0.2446   -1.0736    2.1801 H   0  0
    2.2309   -1.1539   -2.2187 H   0  0
    2.6188   -2.7025   -3.0182 H   0  0
    3.3769   -0.4896   -0.0327 H   0  0
    3.3236    1.9893   -0.0189 H   0  0
    1.1523    3.1875    0.0082 H   0  0
   -0.9422   -0.5682    0.0079 H   0  0
  1  2  1  0
  2  7  2  0
  2  3  1  0
  3  4  2  0
  3 16  1  0
  4  5  1  0
  4 15  1  0
  5 10  1  0
  5  6  1  0
  6  7  1  0
  6  8  2  0
  8  9  1  0
  9 10  2  0
  9 11  1  0
 11 12  1  0
 11 13  1  0
 11 14  1  0
 16 21  2  0
 16 17  1  0
 17 18  2  0
 18 19  1  0
 19 20  2  0
 20 21  1  0
 20 22  1  0
  1 23  1  0
  1 24  1  0
  1 25  1  0
 15 26  1  0
 15 27  1  0
 17 28  1  0
 18 29  1  0
 19 30  1  0
 21 31  1  0
M  END
> <Name>
ZINC13690518

> <reference>
BDB50056262

> <quality>
0.805

> <status>
decoy

$$$$
ZINC15668945
  SciTegic06061311253D

 42 45  0  0  0  0            999 V2000
   -2.4794   -2.5030   -2.4512 C   0  0
   -3.0480   -3.0402   -1.1631 C   0  0
   -4.2942   -3.6389   -1.1542 C   0  0
   -4.8155   -4.1320    0.0271 C   0  0
   -4.0908   -4.0266    1.1998 C   0  0
   -2.8427   -3.4328    1.1898 C   0  0
   -2.3235   -2.9348    0.0091 C   0  0
   -0.9650   -2.2827   -0.0007 C   0  0
   -1.1224   -0.8262    0.0087 N   0  0
    0.0021   -0.0041    0.0020 C   0  0
    1.2699   -0.4267   -0.0122 N   0  0
    2.0846    0.6087   -0.0140 C   0  0
    3.4531    0.7134   -0.0246 N   0  0
    4.0645    1.9404   -0.0233 C   0  0
    3.3138    3.0572   -0.0172 C   0  0
    1.9007    2.9441   -0.0004 C   0  0
    1.2113    3.9486    0.0143 O   0  0
    1.3199    1.7344   -0.0012 N   0  0
   -0.0157    1.3092    0.0092 N   0  0
    3.9045    4.4420   -0.0297 C   0  0
    5.3728    4.4060    0.3895 C   0  0
    6.0860    3.3394   -0.4508 C   0  0
    5.5704    1.9675   -0.0209 C   0  0
   -1.5127   -3.0138   -2.5719 H   0  0
   -2.2642   -1.4434   -2.2487 H   0  0
   -3.1395   -2.6399   -3.3204 H   0  0
   -4.8708   -3.7228   -2.0872 H   0  0
   -5.8070   -4.6083    0.0342 H   0  0
   -4.5075   -4.4153    2.1407 H   0  0
   -2.2625   -3.3564    2.1212 H   0  0
   -0.4014   -2.5958    0.8905 H   0  0
   -0.4181   -2.5858   -0.9057 H   0  0
   -2.0645   -0.4101    0.0203 H   0  0
    4.0282   -0.1411   -0.0336 H   0  0
    3.3441    5.0838    0.6661 H   0  0
    3.8265    4.8615   -1.0436 H   0  0
    5.8335    5.3882    0.2075 H   0  0
    5.4477    4.1464    1.4558 H   0  0
    7.1710    3.3962   -0.2787 H   0  0
    5.8649    3.4995   -1.5164 H   0  0
    5.9499    1.2033   -0.7151 H   0  0
    5.9365    1.7430    0.9918 H   0  0
  1  2  1  0
  2  7  2  0
  2  3  1  0
  3  4  2  0
  4  5  1  0
  5  6  2  0
  6  7  1  0
  7  8  1  0
  8  9  1  0
  9 10  1  0
 10 19  2  0
 10 11  1  0
 11 12  2  0
 12 18  1  0
 12 13  1  0
 13 14  1  0
 14 23  1  0
 14 15  2  0
 15 16  1  0
 15 20  1  0
 16 17  2  0
 16 18  1  0
 18 19  1  0
 20 21  1  0
 21 22  1  0
 22 23  1  0
  1 24  1  0
  1 25  1  0
  1 26  1  0
  3 27  1  0
  4 28  1  0
  5 29  1  0
  6 30  1  0
  8 31  1  0
  8 32  1  0
  9 33  1  0
 13 34  1  0
 20 35  1  0
 20 36  1  0
 21 37  1  0
 21 38  1  0
 22 39  1  0
 22 40  1  0
 23 41  1  0
 23 42  1  0
M  END
> <Name>
ZINC15668945

> <reference>
BDB50056262

> <quality>
0.798

> <status>
decoy

$$$$
ZINC24528890
  SciTegic06061311253D

 29 32  0  0  0  0            999 V2000
   -0.1043    4.2288    0.0258 C   0  0
   -0.1367    5.5913    0.0334 C   0  0
    1.0507    6.3194    0.0260 C   0  0
    2.2901    5.6525    0.0105 C   0  0
    2.3166    4.2553    0.0085 C   0  0
    1.1212    3.5470    0.0104 C   0  0
    1.1412    2.0706    0.0023 C   0  0
    2.2021    1.4771   -0.0110 O   0  0
   -0.0167    1.3809    0.0096 N   0  0
    0.0021   -0.0041    0.0020 C   0  0
   -1.0086   -0.8408    0.0072 N   0  0
   -0.8410   -2.1822   -0.0023 C   0  0
   -1.8381   -3.1874    0.0012 C   0  0
   -1.4946   -4.5157   -0.0104 C   0  0
   -0.1656   -4.9207   -0.0264 C   0  0
    0.8341   -3.9632   -0.0303 C   0  0
    0.4982   -2.6314   -0.0183 C   0  0
    1.4090   -1.1059   -0.0253 S   0  0
    0.1477   -6.2349   -0.0376 F   0  0
   -3.1422   -2.8347    0.0167 F   0  0
    3.2620    6.5957    0.0063 N   0  0
    2.7387    7.7708    0.0176 N   0  0
    1.3408    7.6611    0.0304 N   0  5
   -1.0458    3.6600    0.0318 H   0  0
   -1.1028    6.1172    0.0454 H   0  0
    3.2774    3.7198    0.0054 H   0  0
   -0.9156    1.8837    0.0208 H   0  0
   -2.2888   -5.2767   -0.0070 H   0  0
    1.8912   -4.2671   -0.0429 H   0  0
  1  6  2  0
  1  2  1  0
  2  3  2  0
  3 23  1  0
  3  4  1  0
  4  5  2  0
  4 21  1  0
  5  6  1  0
  6  7  1  0
  7  8  2  0
  7  9  1  0
  9 10  1  0
 10 18  1  0
 10 11  2  0
 11 12  1  0
 12 17  1  0
 12 13  2  0
 13 14  1  0
 13 20  1  0
 14 15  2  0
 15 16  1  0
 15 19  1  0
 16 17  2  0
 17 18  1  0
 21 22  2  0
 22 23  1  0
  1 24  1  0
  2 25  1  0
  5 26  1  0
  9 27  1  0
 14 28  1  0
 16 29  1  0
M  CHG  1  23  -1
M  END
> <Name>
ZINC24528890

> <reference>
BDB50056262

> <quality>
0.793

> <status>
decoy

$$$$
ZINC13492184
  SciTegic06061311253D

 36 39  0  0  0  0            999 V2000
    3.4146   -3.4930   -2.1045 C   0  0
    2.4360   -3.8591   -1.0185 C   0  0
    2.0179   -5.1559   -0.8363 C   0  0
    1.1352   -5.4343    0.1568 C   0  0
    0.8573   -3.8863    0.8860 S   0  0
    1.9181   -2.9032   -0.1585 C   0  0
    2.1789   -1.4610   -0.1147 C   0  0
    1.2236   -0.4487   -0.0679 C   0  0
    1.9601    0.8182   -0.0361 C   0  0
    3.2374    0.5292   -0.0634 N   0  0
    3.4043   -0.8581   -0.1118 N   0  0
    0.9610    1.9140    0.0141 C   0  0
    1.1073    3.2950    0.0574 C   0  0
   -0.0086    4.1137    0.0997 C   0  0
   -1.2771    3.5697    0.0997 C   0  0
   -1.4479    2.1905    0.0516 C   0  0
   -0.3271    1.3511    0.0134 C   0  0
   -0.2049   -0.1200   -0.0371 C   0  0
   -1.1252   -0.9166   -0.0503 O   0  0
   -2.7293    1.6453    0.0453 N   0  0
   -3.7588    2.3374    0.5721 C   0  0
   -3.5544    3.3883    1.1420 O   0  0
   -5.1638    1.8055    0.4531 C   0  0
    4.2392   -2.9947   -1.5737 H   0  0
    2.8976   -2.7179   -2.6893 H   0  0
    3.7516   -4.3402   -2.7199 H   0  0
    2.3942   -5.9586   -1.4876 H   0  0
    0.7013   -6.4069    0.4322 H   0  0
    4.3096   -1.3485   -0.1407 H   0  0
    2.1134    3.7396    0.0581 H   0  0
    0.1168    5.2060    0.1336 H   0  0
   -2.1563    4.2297    0.1379 H   0  0
   -2.8903    0.7130   -0.3620 H   0  0
   -5.1307    0.8032    0.9050 H   0  0
   -5.3300    1.6721   -0.6261 H   0  0
   -5.9228    2.4515    0.9185 H   0  0
  1  2  1  0
  2  6  2  0
  2  3  1  0
  3  4  2  0
  4  5  1  0
  5  6  1  0
  6  7  1  0
  7 11  1  0
  7  8  2  0
  8 18  1  0
  8  9  1  0
  9 10  2  0
  9 12  1  0
 10 11  1  0
 12 17  2  0
 12 13  1  0
 13 14  2  0
 14 15  1  0
 15 16  2  0
 16 17  1  0
 16 20  1  0
 17 18  1  0
 18 19  2  0
 20 21  1  0
 21 22  2  0
 21 23  1  0
  1 24  1  0
  1 25  1  0
  1 26  1  0
  3 27  1  0
  4 28  1  0
 11 29  1  0
 13 30  1  0
 14 31  1  0
 15 32  1  0
 20 33  1  0
 23 34  1  0
 23 35  1  0
 23 36  1  0
M  END
> <Name>
ZINC13492184

> <reference>
BDB50056262

> <quality>
0.793

> <status>
decoy

$$$$
ZINC04116895
  SciTegic06061311253D

 38 41  0  0  0  0            999 V2000
   -3.7104    3.6890    0.0561 C   0  0
   -2.2894    4.0449    0.0442 N   0  0
   -1.2460    3.1335    0.0299 C   0  0
   -1.2189    1.7429    0.0173 C   0  0
   -0.0126    1.0758    0.0080 C   0  0
    1.1820    1.7795    0.0003 C   0  0
    1.1757    3.1577    0.0073 C   0  0
   -0.0362    3.8445    0.0221 C   0  0
   -0.3939    5.2733    0.0327 C   0  0
   -1.8032    5.3289    0.0461 C   0  0
   -2.3878    6.5227    0.0571 N   0  0
   -1.6340    7.6143    0.0552 C   0  0
   -0.3075    7.5365    0.0425 N   0  0
    0.3021    6.4008    0.0315 N   0  0
   -2.2410    8.8585    0.0663 N   0  0
   -1.4578   10.0201    0.0639 N   0  0
   -2.0270   11.1867    0.0743 C   0  0
   -1.2030   12.4088    0.0718 C   0  0
   -1.8114   13.6660    0.0771 C   0  0
   -1.0345   14.8055    0.0791 C   0  0
    0.3464   14.7088    0.0658 C   0  0
    0.9604   13.4704    0.0557 C   0  0
    0.1953   12.3158    0.0584 C   0  0
    0.7978   11.0984    0.0484 O   0  0
   -4.1080    4.2285   -0.8161 H   0  0
   -4.0910    4.2195    0.9414 H   0  0
   -3.9404    2.6133    0.0528 H   0  0
   -2.1609    1.1749    0.0148 H   0  0
    0.0023   -0.0241    0.0067 H   0  0
    2.1382    1.2359   -0.0114 H   0  0
    2.1248    3.7137    0.0012 H   0  0
   -3.2685    8.9302    0.0763 H   0  0
   -3.1243   11.2632    0.0850 H   0  0
   -2.9084   13.7471    0.0797 H   0  0
   -1.5141   15.7954    0.0913 H   0  0
    0.9586   15.6227    0.0633 H   0  0
    2.0582   13.4018    0.0455 H   0  0
    0.4263   10.6383   -0.7456 H   0  0
  1  2  1  0
  2 10  1  0
  2  3  1  0
  3  8  1  0
  3  4  2  0
  4  5  1  0
  5  6  2  0
  6  7  1  0
  7  8  2  0
  8  9  1  0
  9 14  2  0
  9 10  1  0
 10 11  2  0
 11 12  1  0
 12 13  2  0
 12 15  1  0
 13 14  1  0
 15 16  1  0
 16 17  2  0
 17 18  1  0
 18 23  2  0
 18 19  1  0
 19 20  2  0
 20 21  1  0
 21 22  2  0
 22 23  1  0
 23 24  1  0
  1 25  1  0
  1 26  1  0
  1 27  1  0
  4 28  1  0
  5 29  1  0
  6 30  1  0
  7 31  1  0
 15 32  1  0
 17 33  1  0
 19 34  1  0
 20 35  1  0
 21 36  1  0
 22 37  1  0
 24 38  1  0
M  END
> <Name>
ZINC04116895

> <reference>
BDB50056262

> <quality>
0.793

> <status>
decoy

$$$$
ZINC00256352
  SciTegic06061311253D

 29 30  0  0  0  0            999 V2000
   -0.1364    0.1498   -9.6676 C   0  0
   -0.1540    1.5371   -9.6152 C   0  0
   -0.1451    2.1708   -8.3860 C   0  0
   -0.1201    1.4769   -7.2668 N   0  0
   -0.1025    0.1479   -7.2720 C   0  0
   -0.1045   -0.5560   -8.4785 C   0  0
   -0.0748   -0.5886   -5.9952 C   0  0
   -0.0675    0.0609   -4.8714 N   0  0
   -0.0411   -0.6390   -3.6580 N   0  0
   -0.0336    0.0354   -2.4911 C   0  0
   -0.0498    1.2514   -2.4914 O   0  0
   -0.0058   -0.7014   -1.2138 C   0  0
    0.0181   -2.0985   -1.2089 C   0  0
    0.0379   -2.7811   -0.0113 C   0  0
    0.0407   -2.0873    1.1889 C   0  0
    0.0230   -0.7068    1.1975 C   0  0
    0.0021   -0.0041    0.0020 C   0  0
   -0.0163    1.3525    0.0095 O   0  0
    0.0618   -4.6720   -0.0056 Br  0  0
   -0.1476   -0.3764  -10.6335 H   0  0
   -0.1748    2.1271  -10.5434 H   0  0
   -0.1591    3.2698   -8.3424 H   0  0
   -0.0810   -1.6557   -8.4829 H   0  0
   -0.0603   -1.6885   -5.9949 H   0  0
   -0.0274   -1.6689   -3.6577 H   0  0
    0.0211   -2.6528   -2.1590 H   0  0
    0.0571   -2.6399    2.1399 H   0  0
    0.0255   -0.1635    2.1539 H   0  0
   -0.8230    1.5978   -0.5093 H   0  0
  1  6  2  0
  1  2  1  0
  2  3  2  0
  3  4  1  0
  4  5  2  0
  5  6  1  0
  5  7  1  0
  7  8  2  0
  8  9  1  0
  9 10  1  0
 10 11  2  0
 10 12  1  0
 12 17  2  0
 12 13  1  0
 13 14  2  0
 14 15  1  0
 14 19  1  0
 15 16  2  0
 16 17  1  0
 17 18  1  0
  1 20  1  0
  2 21  1  0
  3 22  1  0
  6 23  1  0
  7 24  1  0
  9 25  1  0
 13 26  1  0
 15 27  1  0
 16 28  1  0
 18 29  1  0
M  END
> <Name>
ZINC00256352

> <reference>
BDB50056262

> <quality>
0.791

> <status>
decoy

$$$$
ZINC29579656
  SciTegic06061311253D

 28 29  0  0  0  0            999 V2000
   -2.5009    0.8964    0.0191 C   0  0
   -1.1905    1.6405    0.0165 C   0  0
   -1.1658    2.9774    0.0283 C   0  0
    0.5865    3.3147    0.0136 S   0  0
    1.1543    1.6753    0.0000 C   0  0
    2.4074    1.2246   -0.0133 N   0  0
    2.6443   -0.0898   -0.0214 C   0  0
    1.7131   -0.8772   -0.0165 O   0  0
    4.0359   -0.5903   -0.0362 C   0  0
    5.1042    0.3077   -0.0475 C   0  0
    6.4000   -0.1651   -0.0555 C   0  0
    6.6457   -1.5289   -0.0639 C   0  0
    5.5967   -2.4269   -0.0585 C   0  0
    4.2884   -1.9674   -0.0447 C   0  0
    3.2567   -2.8492   -0.0398 O   0  5
    7.8468    1.0526   -0.0624 Br  0  0
   -0.0111    0.9658    0.0074 N   0  0
   -2.3189    3.9477    0.0439 C   0  0
   -2.4506    0.2401    0.9005 H   0  0
   -2.4592    0.2490   -0.8693 H   0  0
   -3.3867    1.5486    0.0267 H   0  0
    4.9131    1.3910   -0.0500 H   0  0
    7.6818   -1.8981   -0.0749 H   0  0
    5.7991   -3.5081   -0.0652 H   0  0
    0.0029   -0.0641    0.0061 H   0  0
   -2.8868    3.5977    0.9185 H   0  0
   -2.8973    3.6133   -0.8300 H   0  0
   -2.0794    5.0213    0.0521 H   0  0
  1  2  1  0
  2 17  1  0
  2  3  2  0
  3  4  1  0
  3 18  1  0
  4  5  1  0
  5  6  2  0
  5 17  1  0
  6  7  1  0
  7  8  2  0
  7  9  1  0
  9 14  2  0
  9 10  1  0
 10 11  2  0
 11 12  1  0
 11 16  1  0
 12 13  2  0
 13 14  1  0
 14 15  1  0
  1 19  1  0
  1 20  1  0
  1 21  1  0
 10 22  1  0
 12 23  1  0
 13 24  1  0
 17 25  1  0
 18 26  1  0
 18 27  1  0
 18 28  1  0
M  CHG  1  15  -1
M  END
> <Name>
ZINC29579656

> <reference>
BDB50056262

> <quality>
0.789

> <status>
decoy

$$$$
ZINC16652136
  SciTegic06061311253D

 44 47  0  0  1  0            999 V2000
   -4.6505    0.2453   -1.7939 C   0  0
   -3.6095   -0.4677   -0.9699 C   0  0
   -3.9284   -1.6503   -0.3276 C   0  0
   -2.9765   -2.3018    0.4299 C   0  0
   -1.6961   -1.7718    0.5480 C   0  0
   -1.3779   -0.5874   -0.0808 C   0  0
   -2.3379    0.0608   -0.8578 C   0  0
    0.0021   -0.0041    0.0020 C   0  0  2  0  0  0
    0.6887   -0.5031    1.2749 C   0  0  2  0  0  0
    2.1236    0.0234    1.2959 C   0  0
    2.0745    1.5557    1.2365 C   0  0
    1.2917    2.0014    0.0005 C   0  0
   -0.0172    1.4204    0.0099 O   0  0
    0.6610   -2.0325    1.2764 C   0  0  1  0  0  0
   -0.7498   -2.4467    1.3270 N   0  0
    1.3042   -2.5577    0.0188 C   0  0
    0.5836   -2.5891   -1.1620 C   0  0
    1.1681   -3.0633   -2.3180 C   0  0
    2.4864   -3.5228   -2.2922 C   0  0
    3.2059   -3.4935   -1.0959 C   0  0
    2.6110   -3.0115    0.0515 C   0  0
    3.1171   -4.0372   -3.5250 C   0  0
    4.2642   -4.4359   -3.4995 O   0  0
    2.4201   -4.0641   -4.6775 O   0  5
   -4.2057    0.3426   -2.7952 H   0  0
   -4.7116    1.2565   -1.3653 H   0  0
   -5.6260   -0.2627   -1.8143 H   0  0
   -4.9404   -2.0714   -0.4205 H   0  0
   -3.2309   -3.2419    0.9412 H   0  0
   -2.0824    0.9936   -1.3818 H   0  0
    0.5553   -0.3295   -0.8914 H   0  0
    0.1694   -0.1407    2.1744 H   0  0
    2.6204   -0.2942    2.2245 H   0  0
    2.6727   -0.3621    0.4242 H   0  0
    3.0985    1.9539    1.1833 H   0  0
    1.5805    1.9414    2.1405 H   0  0
    1.2035    3.0979   -0.0003 H   0  0
    1.8256    1.6811   -0.9063 H   0  0
    1.2147   -2.4309    2.1394 H   0  0
   -1.0391   -3.2285    1.9320 H   0  0
   -0.4577   -2.2351   -1.1789 H   0  0
    0.5970   -3.0794   -3.2580 H   0  0
    4.2448   -3.8540   -1.0685 H   0  0
    3.1767   -2.9878    0.9946 H   0  0
  1  2  1  0
  2  7  2  0
  2  3  1  0
  3  4  2  0
  4  5  1  0
  5 15  1  0
  5  6  2  0
  6  7  1  0
  6  8  1  0
  8 13  1  0
  8  9  1  0
  9 10  1  0
  9 14  1  0
 10 11  1  0
 11 12  1  0
 12 13  1  0
 14 15  1  0
 14 16  1  0
 16 21  2  0
 16 17  1  0
 17 18  2  0
 18 19  1  0
 19 20  2  0
 19 22  1  0
 20 21  1  0
 22 23  2  0
 22 24  1  0
  1 25  1  0
  1 26  1  0
  1 27  1  0
  3 28  1  0
  4 29  1  0
  7 30  1  0
  8 31  1  0
  9 32  1  0
 10 33  1  0
 10 34  1  0
 11 35  1  0
 11 36  1  0
 12 37  1  0
 12 38  1  0
 14 39  1  0
 15 40  1  0
 17 41  1  0
 18 42  1  0
 20 43  1  0
 21 44  1  0
M  CHG  1  24  -1
M  END
> <Name>
ZINC16652136

> <reference>
BDB50056262

> <quality>
0.777

> <status>
decoy

$$$$
ZINC17325900
  SciTegic06061311253D

 28 29  0  0  0  0            999 V2000
    4.9672    0.1010   -0.0931 C   0  0
    3.7105   -0.7159   -0.2495 C   0  0
    3.7155   -1.9787    0.0517 N   0  0
    2.5155   -2.7017    0.0595 N   0  0
    2.5339   -4.0712    0.2592 C   0  0
    1.3288   -4.8060    0.2682 C   0  0
    1.3440   -6.0959    0.4553 N   0  0
    2.5468   -6.7823    0.6513 N   0  0
    3.7211   -6.1213    0.6513 C   0  0
    4.7676   -6.7275    0.8235 O   0  5
    3.7347   -4.7337    0.4462 C   0  0
    5.2345   -3.8595    0.4339 Cl  0  0
    2.4753   -0.0810   -0.7448 C   0  0
    2.1768    1.2389   -0.3967 C   0  0
    1.0199    1.8273   -0.8625 C   0  0
    0.1539    1.1131   -1.6735 C   0  0
    0.4434   -0.1964   -2.0227 C   0  0
    1.5985   -0.7966   -1.5634 C   0  0
   -0.6485   -1.0835   -3.0398 Cl  0  0
   -1.3042    1.8589   -2.2492 Cl  0  0
    5.7241   -0.4123   -0.7044 H   0  0
    5.2598   -0.0169    0.9607 H   0  0
    4.8437    1.1563   -0.3781 H   0  0
    1.6195   -2.2141   -0.0834 H   0  0
    0.3709   -4.2869    0.1164 H   0  0
    2.8634    1.8076    0.2477 H   0  0
    0.7844    2.8665   -0.5892 H   0  0
    1.8279   -1.8359   -1.8414 H   0  0
  1  2  1  0
  2  3  2  0
  2 13  1  0
  3  4  1  0
  4  5  1  0
  5 11  2  0
  5  6  1  0
  6  7  2  0
  7  8  1  0
  8  9  2  0
  9 10  1  0
  9 11  1  0
 11 12  1  0
 13 18  2  0
 13 14  1  0
 14 15  2  0
 15 16  1  0
 16 17  2  0
 16 20  1  0
 17 18  1  0
 17 19  1  0
  1 21  1  0
  1 22  1  0
  1 23  1  0
  4 24  1  0
  6 25  1  0
 14 26  1  0
 15 27  1  0
 18 28  1  0
M  CHG  1  10  -1
M  END
> <Name>
ZINC17325900

> <reference>
BDB50056262

> <quality>
0.775

> <status>
decoy

$$$$
ZINC06484728
  SciTegic06061311253D

 37 39  0  0  0  0            999 V2000
   -6.8100    4.2864   -3.4059 C   0  0
   -5.5275    3.5407   -3.1413 C   0  0
   -4.6863    3.1921   -4.1804 C   0  0
   -3.5111    2.5058   -3.9165 C   0  0
   -3.1682    2.1700   -2.6679 O   0  0
   -3.9532    2.4858   -1.6205 C   0  0
   -3.5810    2.1269   -0.3173 C   0  0
   -4.4286    2.4674    0.7640 C   0  0
   -4.1184    2.1554    1.9062 O   0  0
   -5.6248    3.1713    0.5274 C   0  0
   -5.9841    3.5170   -0.7339 C   0  0
   -5.1599    3.1831   -1.8281 C   0  0
   -2.3319    1.4023   -0.0779 C   0  0
   -1.2256    2.0623    0.1431 N   0  0
   -0.0852    1.3899    0.4873 C   0  0
   -0.1058    0.4599    1.5276 C   0  0
    1.0466   -0.2195    1.8664 C   0  0
    2.2247    0.0166    1.1787 C   0  0
    2.2597    0.9347    0.1463 C   0  0
    1.1109    1.6270   -0.2075 C   0  0
   -2.3214   -0.1047   -0.0864 C   0  0
   -2.6982    2.1714   -4.9373 O   0  0
    1.1528    2.7977   -1.5237 S   0  5
   -6.7391    5.1919   -2.7855 H   0  0
   -7.5955    3.6557   -2.9641 H   0  0
   -6.9920    4.5112   -4.4672 H   0  0
   -4.9485    3.4586   -5.2149 H   0  0
   -6.2737    3.4433    1.3730 H   0  0
   -6.9246    4.0614   -0.9043 H   0  0
   -1.0395    0.2686    2.0769 H   0  0
    1.0290   -0.9521    2.6868 H   0  0
    3.1383   -0.5298    1.4556 H   0  0
    3.1996    1.1167   -0.3955 H   0  0
   -2.7290   -0.3845   -1.0690 H   0  0
   -3.0686   -0.3966    0.6662 H   0  0
   -1.3334   -0.5493    0.1039 H   0  0
   -2.4890    3.0251   -5.3930 H   0  0
  1  2  1  0
  2 12  2  0
  2  3  1  0
  3  4  2  0
  4  5  1  0
  4 22  1  0
  5  6  1  0
  6 12  1  0
  6  7  2  0
  7  8  1  0
  7 13  1  0
  8  9  2  0
  8 10  1  0
 10 11  2  0
 11 12  1  0
 13 14  2  0
 13 21  1  0
 14 15  1  0
 15 20  2  0
 15 16  1  0
 16 17  2  0
 17 18  1  0
 18 19  2  0
 19 20  1  0
 20 23  1  0
  1 24  1  0
  1 25  1  0
  1 26  1  0
  3 27  1  0
 10 28  1  0
 11 29  1  0
 16 30  1  0
 17 31  1  0
 18 32  1  0
 19 33  1  0
 21 34  1  0
 21 35  1  0
 21 36  1  0
 22 37  1  0
M  CHG  1  23  -1
M  END
> <Name>
ZINC06484728

> <reference>
BDB50056262

> <quality>
0.767

> <status>
decoy

$$$$
ZINC24628246
  SciTegic06061311253D

 38 40  0  0  0  0            999 V2000
    6.7725   -7.3153    0.5094 C   0  0
    5.6588   -6.3054    0.4053 C   0  0
    4.3675   -6.6840    0.3903 C   0  0
    3.4898   -5.1396    0.2641 S   0  0
    4.8323   -4.0467    0.2241 C   0  0
    5.9315   -4.8909    0.3169 C   0  0
    7.2702   -4.3825    0.3241 C   0  0
    8.3322   -3.9792    0.3297 N   0  0
    4.8143   -2.6622    0.1285 N   0  0
    3.6390   -2.0076    0.0463 C   0  0
    2.5945   -2.6300    0.0559 O   0  0
    3.6215   -0.6632   -0.0465 N   0  0
    2.4004    0.0241   -0.0344 C   0  0
    2.3091    1.2671    0.5772 C   0  0
    1.1050    1.9440    0.5913 C   0  0
   -0.0156    1.3852   -0.0054 C   0  0
    0.0735    0.1424   -0.6211 C   0  0
    1.2819   -0.5375   -0.6333 C   0  0
   -1.0131   -0.4181   -1.2194 O   0  0
   -2.2921    0.1179   -0.8636 C   0  0
   -2.2006    1.6492   -0.9074 C   0  0
   -1.1961    2.0640    0.0255 O   0  0
    3.8007   -8.0782    0.4679 C   0  0
    7.3481   -6.9952    1.3904 H   0  0
    7.4033   -7.1158   -0.3694 H   0  0
    6.4403   -8.3621    0.5707 H   0  0
    5.6991   -2.1350    0.1204 H   0  0
    4.5057   -0.1409   -0.1263 H   0  0
    3.1961    1.7132    1.0508 H   0  0
    1.0347    2.9285    1.0769 H   0  0
    1.3538   -1.5224   -1.1179 H   0  0
   -3.0508   -0.2268   -1.5816 H   0  0
   -2.5608   -0.2063    0.1526 H   0  0
   -3.1698    2.0865   -0.6256 H   0  0
   -1.9210    1.9739   -1.9205 H   0  0
    4.2712   -8.4590    1.3864 H   0  0
    4.3266   -8.5786   -0.3586 H   0  0
    2.7057   -8.1795    0.4401 H   0  0
  1  2  1  0
  2  6  1  0
  2  3  2  0
  3  4  1  0
  3 23  1  0
  4  5  1  0
  5  6  2  0
  5  9  1  0
  6  7  1  0
  7  8  3  0
  9 10  1  0
 10 11  2  0
 10 12  1  0
 12 13  1  0
 13 18  2  0
 13 14  1  0
 14 15  2  0
 15 16  1  0
 16 22  1  0
 16 17  2  0
 17 18  1  0
 17 19  1  0
 19 20  1  0
 20 21  1  0
 21 22  1  0
  1 24  1  0
  1 25  1  0
  1 26  1  0
  9 27  1  0
 12 28  1  0
 14 29  1  0
 15 30  1  0
 18 31  1  0
 20 32  1  0
 20 33  1  0
 21 34  1  0
 21 35  1  0
 23 36  1  0
 23 37  1  0
 23 38  1  0
M  END
> <Name>
ZINC24628246

> <reference>
BDB50056262

> <quality>
0.764

> <status>
decoy

$$$$
ZINC02390397
  SciTegic06061311253D

 40 43  0  0  1  0            999 V2000
    4.4719    0.2392   -0.0402 C   0  0
    3.9888   -1.0614   -0.0425 C   0  0
    2.6227   -1.2769   -0.0302 C   0  0
    1.7675   -0.2036   -0.0159 C   0  0
    2.2231    1.1351   -0.0131 C   0  0
    3.6262    1.3173   -0.0264 C   0  0
    1.2616    2.0810    0.0012 N   0  0
   -0.0222    1.7830    0.0118 C   0  0
    0.0021   -0.0041    0.0020 S   0  0
   -1.1811    2.6910    0.0225 C   0  0
   -1.1099    4.0818    0.0298 C   0  0
   -2.3468    4.6451    0.0382 N   0  0
   -3.3402    3.5624    0.0366 C   0  5
   -2.5273    2.2853    0.0209 C   0  0
   -2.9506    1.1457    0.0112 O   0  0
   -2.6386    6.0807    0.0476 C   0  0  2  0  0  0
   -2.0391    6.7312   -1.2008 C   0  0
   -2.3439    8.2306   -1.1909 C   0  0
   -1.7329    8.8669    0.0592 C   0  0
   -2.3323    8.2164    1.3075 C   0  0
   -2.0276    6.7171    1.2977 C   0  0
    0.0551    4.7900    0.0292 N   0  0
    5.5587    0.4088   -0.0497 H   0  0
    4.6854   -1.9127   -0.0540 H   0  0
    2.2241   -2.3021   -0.0319 H   0  0
    4.0426    2.3354   -0.0257 H   0  0
   -3.9641    3.6219   -0.8674 H   0  0
   -3.7279    6.2334    0.0534 H   0  0
   -2.4779    6.2745   -2.1002 H   0  0
   -0.9497    6.5791   -1.2065 H   0  0
   -1.9125    8.6986   -2.0881 H   0  0
   -3.4331    8.3845   -1.1847 H   0  0
   -1.9516    9.9449    0.0675 H   0  0
   -0.6436    8.7137    0.0537 H   0  0
   -1.8927    8.6735    2.2063 H   0  0
   -3.4217    8.3683    1.3143 H   0  0
   -2.4590    6.2499    2.1953 H   0  0
   -0.9382    6.5651    1.2927 H   0  0
    0.9306    4.2475    0.0229 H   0  0
    0.0710    5.8199    0.0347 H   0  0
  1  6  1  0
  1  2  2  0
  2  3  1  0
  3  4  2  0
  4  9  1  0
  4  5  1  0
  5  6  2  0
  5  7  1  0
  7  8  2  0
  8  9  1  0
  8 10  1  0
 10 14  1  0
 10 11  2  0
 11 12  1  0
 11 22  1  0
 12 13  1  0
 12 16  1  0
 13 14  1  0
 14 15  2  0
 16 21  1  0
 16 17  1  0
 17 18  1  0
 18 19  1  0
 19 20  1  0
 20 21  1  0
  1 23  1  0
  2 24  1  0
  3 25  1  0
  6 26  1  0
 13 27  1  0
 16 28  1  0
 17 29  1  0
 17 30  1  0
 18 31  1  0
 18 32  1  0
 19 33  1  0
 19 34  1  0
 20 35  1  0
 20 36  1  0
 21 37  1  0
 21 38  1  0
 22 39  1  0
 22 40  1  0
M  CHG  1  13  -1
M  END
> <Name>
ZINC02390397

> <reference>
BDB50056262

> <quality>
0.759

> <status>
decoy

$$$$
ZINC06585764
  SciTegic06061311253D

 32 35  0  0  0  0            999 V2000
    0.5657    1.1943    7.6785 C   0  0
   -0.1291    0.8788    6.3789 C   0  0
   -1.3477    0.3161    6.3800 C   0  0
   -1.7279    0.1482    4.6464 S   0  0
   -0.2394    0.8384    3.9699 C   0  0
    0.5118    1.1803    5.1119 C   0  0
    1.7915    1.7727    4.8636 C   0  0
    2.5103    2.1005    5.7918 O   0  0
    2.1930    1.9579    3.5926 N   0  0
    1.3941    1.5998    2.5371 C   0  0
    0.2092    1.0514    2.7416 N   0  0
    1.8618    1.8223    1.1674 C   0  0
    1.2219    1.5320   -0.0014 C   0  0
    1.8824    1.8492   -1.2561 C   0  0
    1.4174    1.6475   -2.5799 C   0  0
    2.2170    2.0273   -3.6318 C   0  0
    3.4592    2.5989   -3.3988 C   0  0
    3.8888    2.7852   -2.1658 N   0  0
    3.1615    2.4388   -1.1267 C   0  0
    3.4045    2.5343    0.6297 S   0  0
   -0.0110    0.9628    0.0073 O   0  5
   -2.1924   -0.0796    7.5636 C   0  0
    0.7871    2.2704    7.6235 H   0  0
    1.5285    0.6658    7.6167 H   0  0
   -0.0097    0.9246    8.5764 H   0  0
    3.1164    2.3759    3.4094 H   0  0
    0.4320    1.1941   -2.7627 H   0  0
    1.8695    1.8770   -4.6646 H   0  0
    4.0904    2.8989   -4.2483 H   0  0
   -2.2361    0.8614    8.1315 H   0  0
   -1.5024   -0.7276    8.1239 H   0  0
   -3.1731   -0.5314    7.3534 H   0  0
  1  2  1  0
  2  6  1  0
  2  3  2  0
  3  4  1  0
  3 22  1  0
  4  5  1  0
  5 11  1  0
  5  6  2  0
  6  7  1  0
  7  8  2  0
  7  9  1  0
  9 10  1  0
 10 11  2  0
 10 12  1  0
 12 20  1  0
 12 13  2  0
 13 14  1  0
 13 21  1  0
 14 19  1  0
 14 15  2  0
 15 16  1  0
 16 17  2  0
 17 18  1  0
 18 19  2  0
 19 20  1  0
  1 23  1  0
  1 24  1  0
  1 25  1  0
  9 26  1  0
 15 27  1  0
 16 28  1  0
 17 29  1  0
 22 30  1  0
 22 31  1  0
 22 32  1  0
M  CHG  1  21  -1
M  END
> <Name>
ZINC06585764

> <reference>
BDB50056262

> <quality>
0.758

> <status>
decoy

$$$$
ZINC29836127
  SciTegic06061311253D

 29 31  0  0  0  0            999 V2000
    2.2807    0.2439    0.7228 C   0  0
    1.1005   -0.4729    0.7274 C   0  0
    0.0146   -0.0250   -0.0082 C   0  0
    0.1174    1.1507   -0.7524 C   0  0
    1.3017    1.8688   -0.7568 C   0  0
    2.3855    1.4149   -0.0184 C   0  0
    3.5847    2.1372   -0.0196 N   0  0
    3.5615    3.4815   -0.1135 C   0  0
    2.4997    4.0737   -0.1003 O   0  0
    4.8254    4.2349   -0.2324 C   0  0
    6.0474    3.5574   -0.2421 C   0  0
    7.2251    4.2666   -0.3583 C   0  0
    7.1977    5.6520   -0.4553 C   0  0
    5.9893    6.3287   -0.4409 C   0  0
    4.8044    5.6289   -0.3299 C   0  0
    3.2910    6.4792   -0.3109 Cl  0  0
    8.3541    6.3421   -0.5637 F   0  0
    8.4074    3.6128   -0.3721 F   0  0
   -1.1171    1.3382   -1.3738 N   0  0
   -1.9139    0.3140   -1.0097 C   0  0
   -3.0653    0.1584   -1.3684 O   0  0
   -1.2400   -0.5076   -0.1899 O   0  0
    3.1410   -0.1132    1.3079 H   0  0
    1.0222   -1.3995    1.3150 H   0  0
    1.3829    2.7957   -1.3435 H   0  0
    4.4847    1.6413    0.0513 H   0  0
    6.0704    2.4609   -0.1573 H   0  0
    5.9736    7.4259   -0.5181 H   0  0
   -1.3731    2.1172   -1.9972 H   0  0
  1  6  2  0
  1  2  1  0
  2  3  2  0
  3 22  1  0
  3  4  1  0
  4  5  2  0
  4 19  1  0
  5  6  1  0
  6  7  1  0
  7  8  1  0
  8  9  2  0
  8 10  1  0
 10 15  2  0
 10 11  1  0
 11 12  2  0
 12 13  1  0
 12 18  1  0
 13 14  2  0
 13 17  1  0
 14 15  1  0
 15 16  1  0
 19 20  1  0
 20 21  2  0
 20 22  1  0
  1 23  1  0
  2 24  1  0
  5 25  1  0
  7 26  1  0
 11 27  1  0
 14 28  1  0
 19 29  1  0
M  END
> <Name>
ZINC29836127

> <reference>
BDB50056262

> <quality>
0.757

> <status>
decoy

$$$$
ZINC30607163
  SciTegic06061311253D

 39 42  0  0  0  0            999 V2000
   -1.2144    1.7480    0.0174 C   0  0
   -0.0126    1.0758    0.0087 C   0  0
    1.1891    1.7915    0.0009 C   0  0
    2.5973    1.4051   -0.0148 C   0  0
    3.3071    2.4970   -0.0168 N   0  0
    2.4670    3.6150   -0.0018 N   0  0
    1.1668    3.1987    0.0085 C   0  0
   -0.0691    3.8694    0.0240 C   0  0
   -1.2501    3.1322    0.0307 C   0  0
   -0.1138    5.3431    0.0333 C   0  0
    0.9203    5.9829    0.0276 O   0  0
   -1.3009    5.9812    0.0482 N   0  5
   -1.3431    7.3702    0.0569 C   0  0
   -0.3545    8.2539    0.0527 N   0  0
   -0.5726    9.4961    0.0622 N   0  0
   -1.7928    9.9945    0.0771 C   0  0
   -2.7482    8.4801    0.0693 S   0  0
   -2.2527   11.4296    0.0901 C   0  0  2  0  0  0
   -1.7331   12.1430   -1.1597 C   0  0
   -2.2000   13.6000   -1.1463 C   0  0
   -1.6571   14.2981    0.1021 C   0  0
   -2.1767   13.5847    1.3520 C   0  0
   -1.7098   12.1277    1.3386 C   0  0
   -2.1560    1.1794    0.0137 H   0  0
    0.0023   -0.0241    0.0079 H   0  0
    2.9881    0.3769   -0.0234 H   0  0
    4.3364    2.5321   -0.0278 H   0  0
   -2.2188    3.6532    0.0467 H   0  0
   -3.3522   11.4623    0.1005 H   0  0
   -2.1230   11.6420   -2.0580 H   0  0
   -0.6336   12.1109   -1.1700 H   0  0
   -1.8262   14.1132   -2.0445 H   0  0
   -3.2994   13.6338   -1.1355 H   0  0
   -1.9923   15.3457    0.1128 H   0  0
   -0.5576   14.2649    0.0920 H   0  0
   -1.7860   14.0862    2.2497 H   0  0
   -3.2762   13.6165    1.3634 H   0  0
   -2.0836   11.6152    2.2372 H   0  0
   -0.6103   12.0959    1.3290 H   0  0
  1  9  1  0
  1  2  2  0
  2  3  1  0
  3  7  1  0
  3  4  2  0
  4  5  1  0
  5  6  1  0
  6  7  2  0
  7  8  1  0
  8  9  2  0
  8 10  1  0
 10 11  2  0
 10 12  1  0
 12 13  1  0
 13 17  1  0
 13 14  2  0
 14 15  1  0
 15 16  2  0
 16 17  1  0
 16 18  1  0
 18 23  1  0
 18 19  1  0
 19 20  1  0
 20 21  1  0
 21 22  1  0
 22 23  1  0
  1 24  1  0
  2 25  1  0
  4 26  1  0
  5 27  1  0
  9 28  1  0
 18 29  1  0
 19 30  1  0
 19 31  1  0
 20 32  1  0
 20 33  1  0
 21 34  1  0
 21 35  1  0
 22 36  1  0
 22 37  1  0
 23 38  1  0
 23 39  1  0
M  CHG  1  12  -1
M  END
> <Name>
ZINC30607163

> <reference>
BDB50056262

> <quality>
0.754

> <status>
decoy

$$$$
ZINC04651423
  SciTegic06061311253D

 39 42  0  0  0  0            999 V2000
    2.0095   -2.6224    0.6856 C   0  0
    1.9151   -1.9172   -0.6689 C   0  0  1  0  0  0
    0.8529   -2.6048   -1.5290 C   0  0
    1.5343   -0.4743   -0.4585 C   0  0
    0.3531    0.0725   -0.4932 N   0  0
    0.1817    1.4214   -0.2665 N   0  0
   -1.0559    2.0977   -0.2147 C   0  0
   -2.1933    1.4960    0.0197 N   0  0
   -0.9406    3.5620   -0.4523 C   0  0
   -1.9384    4.2773   -1.0891 C   0  0
   -1.7208    5.6264   -1.4496 C   0  0
   -0.5294    6.1947   -1.8583 C   0  0
   -0.7188    7.5038   -2.1153 N   0  0
   -2.0335    7.8606   -1.8908 C   0  0
   -2.7221    6.7115   -1.4716 C   0  0
   -4.0776    6.7811   -1.1660 C   0  0
   -4.7438    7.9821   -1.2869 C   0  0
   -4.0669    9.1176   -1.7057 C   0  0
   -2.7229    9.0631   -2.0066 C   0  0
    0.3000    4.2130    0.0290 C   0  0
    0.3175    5.4003    0.3128 O   0  0
    1.4093    3.4553    0.1447 N   0  0
    1.3216    2.1620   -0.0378 C   0  0
    2.5888    0.9231   -0.0975 S   0  0
    2.2877   -3.6757    0.5332 H   0  0
    1.0362   -2.5710    1.1955 H   0  0
    2.7731   -2.1285    1.3045 H   0  0
    2.8889   -1.9690   -1.1779 H   0  0
   -0.1214   -2.5533   -1.0210 H   0  0
    1.1301   -3.6581   -1.6833 H   0  0
    0.7845   -2.0982   -2.5030 H   0  0
   -2.1708    0.4776    0.1724 H   0  0
   -2.9014    3.7961   -1.3150 H   0  0
    0.4269    5.6604   -1.9585 H   0  0
    0.0167    8.1499   -2.4355 H   0  0
   -4.6152    5.8823   -0.8296 H   0  0
   -5.8165    8.0398   -1.0502 H   0  0
   -4.6077   10.0710   -1.7987 H   0  0
   -2.1959    9.9700   -2.3381 H   0  0
  1  2  1  0
  2  3  1  0
  2  4  1  0
  4 24  1  0
  4  5  2  0
  5  6  1  0
  6 23  1  0
  6  7  1  0
  7  8  2  0
  7  9  1  0
  9 10  2  0
  9 20  1  0
 10 11  1  0
 11 15  1  0
 11 12  2  0
 12 13  1  0
 13 14  1  0
 14 19  2  0
 14 15  1  0
 15 16  2  0
 16 17  1  0
 17 18  2  0
 18 19  1  0
 20 21  2  0
 20 22  1  0
 22 23  2  0
 23 24  1  0
  1 25  1  0
  1 26  1  0
  1 27  1  0
  2 28  1  0
  3 29  1  0
  3 30  1  0
  3 31  1  0
  8 32  1  0
 10 33  1  0
 12 34  1  0
 13 35  1  0
 16 36  1  0
 17 37  1  0
 18 38  1  0
 19 39  1  0
M  END
> <Name>
ZINC04651423

> <reference>
BDB50056262

> <quality>
0.754

> <status>
decoy

$$$$
ZINC29810279
  SciTegic06061311253D

 39 41  0  0  0  0            999 V2000
    0.0882   -2.8401    2.4897 C   0  0
    0.0597   -2.0848    1.1861 C   0  0
    0.0511   -2.7778   -0.0116 C   0  0
    0.0251   -2.0923   -1.2084 C   0  0
    0.0006   -0.6967   -1.2094 C   0  0
    0.0151   -0.0039    0.0018 C   0  0
    0.0418   -0.7015    1.1919 C   0  0
   -0.0044    1.5031    0.0100 C   0  0
   -0.0341    0.0444   -2.4884 C   0  0
   -0.0446   -0.5022   -3.7488 N   0  0
   -0.0714    0.5562   -4.6099 C   0  0
   -0.0765    1.6500   -3.8834 N   0  0
   -0.0607    1.3493   -2.6339 N   0  0
   -0.0898    0.4891   -5.9955 N   0  0
   -0.0818   -0.7093   -6.6123 C   0  0
   -0.0584   -1.7312   -5.9545 O   0  0
   -0.1014   -0.7808   -8.0886 C   0  0
   -0.1283    0.3929   -8.8461 C   0  0
   -0.1463    0.3281  -10.2250 C   0  0
   -0.1378   -0.8954  -10.8653 C   0  0
   -0.1115   -2.0771  -10.1202 C   0  0
   -0.0874   -2.0186   -8.7277 C   0  0
   -0.1023   -3.3450  -10.7856 C   0  0
   -0.0950   -4.3509  -11.3135 N   0  0
   -0.7941   -2.4883    3.0445 H   0  0
    0.9766   -2.4653    3.0191 H   0  0
    0.1007   -3.9334    2.3693 H   0  0
    0.0650   -3.8777   -0.0093 H   0  0
    0.0237   -2.6443   -2.1599 H   0  0
    0.0489   -0.1566    2.1474 H   0  0
   -0.9043    1.7793   -0.5590 H   0  0
    0.8653    1.8024   -0.5934 H   0  0
    0.0094    1.9443    1.0175 H   0  0
   -0.0344   -1.5028   -3.9930 H   0  0
   -0.1096    1.3551   -6.5528 H   0  0
   -0.1352    1.3709   -8.3426 H   0  0
   -0.1675    1.2554  -10.8164 H   0  0
   -0.1518   -0.9398  -11.9643 H   0  0
   -0.0575   -2.9455   -8.1362 H   0  0
  1  2  1  0
  2  7  2  0
  2  3  1  0
  3  4  2  0
  4  5  1  0
  5  6  2  0
  5  9  1  0
  6  7  1  0
  6  8  1  0
  9 10  1  0
  9 13  2  0
 10 11  1  0
 11 14  1  0
 11 12  2  0
 12 13  1  0
 14 15  1  0
 15 16  2  0
 15 17  1  0
 17 22  2  0
 17 18  1  0
 18 19  2  0
 19 20  1  0
 20 21  2  0
 21 22  1  0
 21 23  1  0
 23 24  3  0
  1 25  1  0
  1 26  1  0
  1 27  1  0
  3 28  1  0
  4 29  1  0
  7 30  1  0
  8 31  1  0
  8 32  1  0
  8 33  1  0
 10 34  1  0
 14 35  1  0
 18 36  1  0
 19 37  1  0
 20 38  1  0
 22 39  1  0
M  END
> <Name>
ZINC29810279

> <reference>
BDB50056262

> <quality>
0.754

> <status>
decoy

$$$$
ZINC30113574
  SciTegic06061311253D

 29 31  0  0  0  0            999 V2000
    1.7230    3.5484    0.0042 C   0  0
    1.2986    2.1023    0.0009 C   0  0
    2.2673    1.0843   -0.0138 C   0  0
    3.6813    1.2102   -0.0270 C   0  0
    4.4478    0.0823   -0.0408 C   0  0
    3.8582   -1.1738   -0.0414 C   0  0
    2.5446   -1.2951   -0.0292 N   0  0
    1.7629   -0.2395   -0.0161 C   0  0
    0.0021   -0.0041    0.0020 S   0  0
   -0.0221    1.7799    0.0118 C   0  0
   -1.1838    2.6794    0.0225 C   0  0
   -1.0196    3.8849    0.0278 O   0  0
   -2.4312    2.1692    0.0265 N   0  5
   -3.5291    3.0193    0.0366 C   0  0
   -3.4984    4.3834    0.0489 N   0  0
   -4.8042    4.7836    0.0528 C   0  0
   -5.5399    3.7075    0.0421 N   0  0
   -4.7913    2.6627    0.0361 N   0  0
    4.7238   -2.4073   -0.0568 C   0  0  1  0  0  0
    5.0052   -2.7960    1.2574 F   0  0
    4.0500   -3.4417   -0.7149 F   0  0
    5.9199   -2.1293   -0.7270 F   0  0
    1.2494    3.9836    0.8965 H   0  0
    1.2326    3.9926   -0.8745 H   0  0
    2.8136    3.6912   -0.0054 H   0  0
    4.1524    2.2042   -0.0261 H   0  0
    5.5443    0.1692   -0.0516 H   0  0
   -5.1678    5.8217    0.0631 H   0  0
   -6.5698    3.6962    0.0389 H   0  0
  1  2  1  0
  2 10  2  0
  2  3  1  0
  3  8  1  0
  3  4  2  0
  4  5  1  0
  5  6  2  0
  6  7  1  0
  6 19  1  0
  7  8  2  0
  8  9  1  0
  9 10  1  0
 10 11  1  0
 11 12  2  0
 11 13  1  0
 13 14  1  0
 14 15  1  0
 14 18  2  0
 15 16  2  0
 16 17  1  0
 17 18  1  0
 19 20  1  0
 19 21  1  0
 19 22  1  0
  1 23  1  0
  1 24  1  0
  1 25  1  0
  4 26  1  0
  5 27  1  0
 16 28  1  0
 17 29  1  0
M  CHG  1  13  -1
M  END
> <Name>
ZINC30113574

> <reference>
BDB50056262

> <quality>
0.753

> <status>
decoy

$$$$
ZINC03911635
  SciTegic06061311253D

 40 43  0  0  0  0            999 V2000
   -5.5814    5.7531   -2.7301 C   0  0
   -4.2718    5.8664   -1.9931 C   0  0
   -3.9209    7.0603   -1.3897 C   0  0
   -2.7217    7.1678   -0.7136 C   0  0
   -1.8671    6.0745   -0.6399 C   0  0
   -2.2206    4.8780   -1.2519 C   0  0
   -3.4240    4.7761   -1.9215 C   0  0
   -0.6535    6.1796    0.0425 N   0  0
    0.1494    5.0514    0.2161 C   0  0
    1.3893    4.8302   -0.3438 C   0  0
    1.8261    3.6265    0.0725 N   0  0
    0.9197    3.0817    0.8668 C   0  0
   -0.1416    3.9513    0.9754 N   0  0
   -1.2211    3.6212    1.7481 C   0  0
   -1.2287    2.4307    2.3942 C   0  0
   -0.1272    1.5708    2.2657 C   0  0
    0.8970    1.9085    1.5191 N   0  0
    2.1150    5.7556   -1.2454 C   0  0
    1.4097    6.5341   -2.1629 C   0  0
    2.0880    7.3975   -2.9974 C   0  0
    3.4719    7.4851   -2.9318 C   0  0
    4.1775    6.7078   -2.0235 C   0  0
    3.5054    5.8458   -1.1825 C   0  0
    4.1375    8.3335   -3.7591 O   0  0
   -6.1066    4.9124   -2.2532 H   0  0
   -5.3109    5.4330   -3.7472 H   0  0
   -6.1762    6.6784   -2.7244 H   0  0
   -4.5979    7.9253   -1.4484 H   0  0
   -2.4432    8.1177   -0.2339 H   0  0
   -1.5427    4.0131   -1.2030 H   0  0
   -3.7086    3.8266   -2.3985 H   0  0
   -0.3508    7.0898    0.4178 H   0  0
   -2.0711    4.3129    1.8434 H   0  0
   -2.0901    2.1407    3.0137 H   0  0
   -0.1227    0.6065    2.7950 H   0  0
    0.3138    6.4595   -2.2208 H   0  0
    1.5318    8.0175   -3.7159 H   0  0
    5.2741    6.7795   -1.9745 H   0  0
    4.0652    5.2302   -0.4630 H   0  0
    3.7401    9.2235   -3.5859 H   0  0
  1  2  1  0
  2  7  2  0
  2  3  1  0
  3  4  2  0
  4  5  1  0
  5  6  2  0
  5  8  1  0
  6  7  1  0
  8  9  1  0
  9 13  1  0
  9 10  2  0
 10 11  1  0
 10 18  1  0
 11 12  2  0
 12 17  1  0
 12 13  1  0
 13 14  1  0
 14 15  2  0
 15 16  1  0
 16 17  2  0
 18 23  2  0
 18 19  1  0
 19 20  2  0
 20 21  1  0
 21 22  2  0
 21 24  1  0
 22 23  1  0
  1 25  1  0
  1 26  1  0
  1 27  1  0
  3 28  1  0
  4 29  1  0
  6 30  1  0
  7 31  1  0
  8 32  1  0
 14 33  1  0
 15 34  1  0
 16 35  1  0
 19 36  1  0
 20 37  1  0
 22 38  1  0
 23 39  1  0
 24 40  1  0
M  END
> <Name>
ZINC03911635

> <reference>
BDB50056262

> <quality>
0.747

> <status>
decoy

$$$$
ZINC03849166
  SciTegic06061311253D

 34 36  0  0  0  0            999 V2000
    0.5993    2.9377   -0.8252 C   0  0
    0.2046    4.2639   -0.8622 C   0  0
   -1.1119    4.5942   -0.6386 C   0  0
   -2.0680    3.5984   -0.3698 C   0  0
   -1.6672    2.2645   -0.3332 C   0  0
   -0.3253    1.9503   -0.5616 C   0  0
   -2.5102    1.1937   -0.0588 N   0  0
   -3.4706    1.1880    0.8722 C   0  0
   -4.0676    0.1623    1.1369 O   0  0
   -3.7962    2.4507    1.5757 C   0  0
   -3.7640    2.5430    2.8880 N   0  0
   -3.9024    3.6922    3.4574 N   0  0
   -3.9864    3.7765    4.8474 C   0  0
   -4.1361    5.0131    5.4736 C   0  0
   -4.2147    5.0450    6.8557 C   0  0
   -4.1429    3.8595    7.5641 C   0  0
   -4.0016    2.7052    6.9421 N   0  0
   -3.9279    2.6285    5.6285 C   0  0
   -4.1583    3.5959    0.7248 C   0  0
   -3.3428    4.0304   -0.1719 N   0  0
   -5.4962    4.2659    0.9045 C   0  0  1  0  0  0
   -5.5575    5.4084    0.0995 F   0  0
   -6.5145    3.3803    0.5357 F   0  0
   -5.6586    4.6309    2.2453 F   0  0
    1.6512    2.6718   -1.0062 H   0  0
    0.9427    5.0526   -1.0701 H   0  0
   -1.4205    5.6496   -0.6704 H   0  0
   -0.0019    0.8994   -0.5306 H   0  0
   -2.3854    0.3368   -0.6166 H   0  0
   -3.9509    4.5476    2.8858 H   0  0
   -4.1904    5.9404    4.8844 H   0  0
   -4.3329    6.0025    7.3842 H   0  0
   -4.2045    3.8796    8.6622 H   0  0
   -3.8190    1.6462    5.1456 H   0  0
  1  6  2  0
  1  2  1  0
  2  3  2  0
  3  4  1  0
  4 20  1  0
  4  5  2  0
  5  6  1  0
  5  7  1  0
  7  8  1  0
  8  9  2  0
  8 10  1  0
 10 11  2  0
 10 19  1  0
 11 12  1  0
 12 13  1  0
 13 18  2  0
 13 14  1  0
 14 15  2  0
 15 16  1  0
 16 17  2  0
 17 18  1  0
 19 20  2  0
 19 21  1  0
 21 22  1  0
 21 23  1  0
 21 24  1  0
  1 25  1  0
  2 26  1  0
  3 27  1  0
  6 28  1  0
  7 29  1  0
 12 30  1  0
 14 31  1  0
 15 32  1  0
 16 33  1  0
 18 34  1  0
M  END
> <Name>
ZINC03849166

> <reference>
BDB50056262

> <quality>
0.745

> <status>
decoy

$$$$
ZINC00497732
  SciTegic06061311253D

 40 43  0  0  0  0            999 V2000
   -2.9242    1.7693   -5.1246 C   0  0
   -2.8288    2.5315   -3.8015 C   0  0
   -1.3938    3.0215   -3.5976 C   0  0
   -1.2998    3.7723   -2.2943 C   0  0
   -0.9861    3.0824   -1.1249 C   0  0
   -0.8947    3.7617    0.0610 C   0  0
   -1.1303    5.1604    0.0764 C   0  0
   -1.0838    6.0640    1.2388 C   0  0
   -1.3598    7.4048    0.9817 C   0  0
   -1.3472    8.3588    2.0084 C   0  0
   -1.5915    9.5313    1.7784 O   0  0
   -1.0563    7.9408    3.2632 N   0  0
   -0.7911    6.6269    3.4781 C   0  0
   -0.8016    5.7399    2.5334 N   0  0
   -1.0295    8.8302    4.2996 N   0  0
   -1.6709    7.4756   -0.7616 S   0  0
   -1.4431    5.7594   -1.1571 C   0  0
   -1.5157    5.0704   -2.2760 N   0  0
   -0.5466    3.0963    1.3637 C   0  0
   -0.7387    1.5844    1.2632 C   0  0
   -0.0127    1.0858    0.0080 C   0  0
   -0.7596    1.5959   -1.2230 C   0  0
   -2.2426    0.9062   -5.1018 H   0  0
   -2.6437    2.4355   -5.9538 H   0  0
   -3.9557    1.4167   -5.2719 H   0  0
   -3.5105    3.3945   -3.8253 H   0  0
   -3.1093    1.8654   -2.9723 H   0  0
   -0.7116    2.1589   -3.5733 H   0  0
   -1.1119    3.6887   -4.4254 H   0  0
   -0.5564    6.2999    4.5018 H   0  0
   -1.2320    9.8247    4.1240 H   0  0
   -0.8079    8.5087    5.2527 H   0  0
   -1.1938    3.4924    2.1601 H   0  0
    0.5022    3.3134    1.6143 H   0  0
   -0.3127    1.0980    2.1531 H   0  0
   -1.8110    1.3517    1.1855 H   0  0
    0.0005   -0.0141    0.0008 H   0  0
    1.0173    1.4718   -0.0001 H   0  0
   -0.1683    1.3754   -2.1240 H   0  0
   -1.7303    1.0838   -1.2974 H   0  0
  1  2  1  0
  2  3  1  0
  3  4  1  0
  4 18  1  0
  4  5  2  0
  5 22  1  0
  5  6  1  0
  6  7  2  0
  6 19  1  0
  7 17  1  0
  7  8  1  0
  8 14  1  0
  8  9  2  0
  9 10  1  0
  9 16  1  0
 10 11  2  0
 10 12  1  0
 12 13  1  0
 12 15  1  0
 13 14  2  0
 16 17  1  0
 17 18  2  0
 19 20  1  0
 20 21  1  0
 21 22  1  0
  1 23  1  0
  1 24  1  0
  1 25  1  0
  2 26  1  0
  2 27  1  0
  3 28  1  0
  3 29  1  0
 13 30  1  0
 15 31  1  0
 15 32  1  0
 19 33  1  0
 19 34  1  0
 20 35  1  0
 20 36  1  0
 21 37  1  0
 21 38  1  0
 22 39  1  0
 22 40  1  0
M  END
> <Name>
ZINC00497732

> <reference>
BDB50056262

> <quality>
0.738

> <status>
decoy

$$$$
ZINC22860210
  SciTegic06061311253D

 52 52  0  0  1  0            999 V2000
    2.3194    1.0248    5.3508 C   0  0
    1.1970    0.4513    4.9937 C   0  0
    0.1620    1.2332    4.2268 C   0  0
   -0.1672    0.5237    2.9880 N   0  0
   -1.0762    1.0396    2.1371 C   0  0
   -1.6217    2.0912    2.3969 O   0  0
   -1.4147    0.3098    0.8628 C   0  0
   -2.4237    1.0720    0.1152 N   0  0
   -3.7337    1.0007    0.7761 C   0  0
   -4.7099    1.8930    0.0538 C   0  0
   -4.3775    2.4534   -0.9637 O   0  0
   -5.9506    2.0610    0.5379 O   0  5
   -2.5099    0.6081   -1.2759 C   0  0  2  0  0  0
   -3.6892   -0.3559   -1.4199 C   0  0
   -3.4827   -1.5562   -0.4939 C   0  0
   -2.1867   -2.2757   -0.8728 C   0  0
   -1.0073   -1.3117   -0.7288 C   0  0
   -1.2138   -0.1114   -1.6548 C   0  0  2  0  0  0
   -0.0815    0.8143   -1.5166 N   0  3
    1.1653    0.1944   -1.9848 C   0  0
    1.0684   -0.0730   -3.4647 C   0  0
    0.1018    0.3030   -4.0846 O   0  0
    2.0560   -0.7288   -4.0943 O   0  5
   -0.3418    2.0741   -2.2258 C   0  0
    0.7822    3.0420   -1.9594 C   0  0
    1.7479    2.6868   -1.3261 O   0  0
    0.7104    4.2986   -2.4258 O   0  5
    2.5063    2.0772    5.0908 H   0  0
    3.0749    0.4540    5.9106 H   0  0
    1.0101   -0.6011    5.2537 H   0  0
   -0.7452    1.3402    4.8396 H   0  0
    0.5596    2.2295    3.9833 H   0  0
    0.2960   -0.3694    2.7673 H   0  0
   -0.5079    0.2029    0.2494 H   0  0
   -1.8135   -0.6865    1.1044 H   0  0
   -3.6375    1.3332    1.8202 H   0  0
   -4.0999   -0.0363    0.7538 H   0  0
   -2.6584    1.4711   -1.9417 H   0  0
   -4.6210    0.1611   -1.1469 H   0  0
   -3.7545   -0.7041   -2.4613 H   0  0
   -4.3300   -2.2501   -0.5968 H   0  0
   -3.4176   -1.2089    0.5478 H   0  0
   -2.0379   -3.1384   -0.2067 H   0  0
   -2.2501   -2.6233   -1.9145 H   0  0
   -0.0750   -1.8279   -1.0013 H   0  0
   -0.9430   -0.9638    0.3127 H   0  0
   -1.2783   -0.4589   -2.6965 H   0  0
    0.0294    1.0316   -0.5159 H   0  0
    1.3274   -0.7539   -1.4515 H   0  0
    2.0084    0.8736   -1.7899 H   0  0
   -1.2890    2.5068   -1.8714 H   0  0
   -0.4091    1.8796   -3.3064 H   0  0
  1  2  2  0
  2  3  1  0
  3  4  1  0
  4  5  1  0
  5  6  2  0
  5  7  1  0
  7  8  1  0
  8  9  1  0
  8 13  1  0
  9 10  1  0
 10 11  2  0
 10 12  1  0
 13 18  1  0
 13 14  1  0
 14 15  1  0
 15 16  1  0
 16 17  1  0
 17 18  1  0
 18 19  1  0
 19 20  1  0
 19 24  1  0
 20 21  1  0
 21 22  2  0
 21 23  1  0
 24 25  1  0
 25 26  2  0
 25 27  1  0
  1 28  1  0
  1 29  1  0
  2 30  1  0
  3 31  1  0
  3 32  1  0
  4 33  1  0
  7 34  1  0
  7 35  1  0
  9 36  1  0
  9 37  1  0
 13 38  1  0
 14 39  1  0
 14 40  1  0
 15 41  1  0
 15 42  1  0
 16 43  1  0
 16 44  1  0
 17 45  1  0
 17 46  1  0
 18 47  1  0
 19 48  1  0
 20 49  1  0
 20 50  1  0
 24 51  1  0
 24 52  1  0
M  CHG  4  12  -1  19   1  23  -1  27  -1
M  END
> <Name>
ZINC22860210

> <reference>
BDB50020383

> <quality>
0.845

> <status>
decoy

$$$$
ZINC05134332
  SciTegic06061311253D

 39 39  0  0  1  0            999 V2000
   -1.0870   -2.0569    1.9190 C   0  0
    0.4216   -1.8026    1.9035 C   0  0
    0.6619   -0.4764    1.4038 O   0  0
    0.0021   -0.0041    0.0020 P   0  0
   -1.6047   -0.5202    0.0749 N   0  3
   -1.6612   -1.9246    0.5096 C   0  0  2  0  0  0
   -3.3858   -2.4872    0.5066 S   0  0
   -4.2602   -1.2166   -0.4483 C   0  0
   -5.7460   -1.5724   -0.5299 C   0  0
   -6.6204   -0.3018   -1.4847 S   0  0
   -6.6312    0.9264   -0.7703 O   0  0
   -6.2127   -0.3450   -2.8453 O   0  0
   -0.0207    1.6788    0.0113 N   0  0
    1.3434    2.2238    0.0012 C   0  0
    1.4159    3.4342    0.9343 C   0  0
    3.0901    4.1032    0.9219 Cl  0  0
   -0.8046    2.2008   -1.1161 C   0  0
   -1.5337    3.4746   -0.6838 C   0  0
   -2.4958    4.1154   -2.0675 Cl  0  0
   -8.0733   -0.7549   -1.5001 O   0  5
   -1.2812   -3.0706    2.2993 H   0  0
   -1.5728   -1.3249    2.5810 H   0  0
    0.8202   -1.8889    2.9251 H   0  0
    0.9132   -2.5372    1.2488 H   0  0
   -2.0360   -0.4336   -0.8564 H   0  0
   -2.1228    0.0658    0.7450 H   0  0
   -1.0682   -2.5413   -0.1819 H   0  0
   -4.1439   -0.2411    0.0465 H   0  0
   -3.8399   -1.1653   -1.4635 H   0  0
   -5.8630   -2.5476   -1.0251 H   0  0
   -6.1684   -1.6231    0.4845 H   0  0
    2.0488    1.4532    0.3456 H   0  0
    1.6083    2.5331   -1.0206 H   0  0
    1.1524    3.1265    1.9570 H   0  0
    0.7110    4.2054    0.5902 H   0  0
   -0.1318    2.4310   -1.9553 H   0  0
   -1.5409    1.4472   -1.4324 H   0  0
   -0.7989    4.2299   -0.3682 H   0  0
   -2.2071    3.2451    0.1551 H   0  0
  1  6  1  0
  1  2  1  0
  2  3  1  0
  3  4  1  0
  4  5  1  0
  4 13  1  0
  5  6  1  0
  6  7  1  0
  7  8  1  0
  8  9  1  0
  9 10  1  0
 10 11  2  0
 10 12  2  0
 10 20  1  0
 13 14  1  0
 13 17  1  0
 14 15  1  0
 15 16  1  0
 17 18  1  0
 18 19  1  0
  1 21  1  0
  1 22  1  0
  2 23  1  0
  2 24  1  0
  5 25  1  0
  5 26  1  0
  6 27  1  0
  8 28  1  0
  8 29  1  0
  9 30  1  0
  9 31  1  0
 14 32  1  0
 14 33  1  0
 15 34  1  0
 15 35  1  0
 17 36  1  0
 17 37  1  0
 18 38  1  0
 18 39  1  0
M  CHG  2   5   1  20  -1
M  END
> <Name>
ZINC05134332

> <reference>
BDB50020383

> <quality>
0.799

> <status>
decoy

$$$$
ZINC11032763
  SciTegic06061311253D

 45 45  0  0  1  0            999 V2000
    5.6731    8.1662   -8.0916 C   0  0
    6.2162    6.7628   -8.1729 C   0  0
    5.5886    5.7375   -7.4884 C   0  0
    6.1046    4.4040   -7.5657 C   0  0
    6.5140    3.3461   -7.6271 N   0  0
    4.4361    6.0066   -6.7114 C   0  0
    3.9985    7.1374   -6.6458 O   0  0
    3.7524    4.8897   -5.9657 C   0  0
    2.6046    5.4172   -5.2498 O   0  0
    1.8816    4.5448   -4.5301 C   0  0
    2.1974    3.3790   -4.4994 O   0  0
    0.6760    5.0194   -3.7604 C   0  0
    0.0371    3.8352   -3.0323 C   0  0
   -1.1868    4.3171   -2.2509 C   0  0
   -1.7986    3.1831   -1.5537 N   0  0
   -2.7579    2.3244   -2.2527 C   0  0
   -1.4058    2.8719    0.0247 S   0  0
   -2.4928    2.1426    0.5776 O   0  0
   -0.9507    4.0985    0.5794 O   0  0
   -0.0221    1.7810    0.0118 C   0  0
    1.3000    2.0794    0.0008 C   0  0
    2.2199    1.0478   -0.0135 C   0  0
    1.7727   -0.2318   -0.0161 C   0  0
    0.0021   -0.0041    0.0020 S   0  0
    7.3145    6.5064   -8.9133 N   0  3
    5.6524    8.4028   -7.0176 H   0  0
    4.6285    8.0883   -8.4275 H   0  0
    6.2489    8.9008   -8.6736 H   0  0
    6.1454    6.0960   -8.3667 H   0  0
    3.4177    4.1229   -6.6798 H   0  0
    4.4561    4.4412   -5.2491 H   0  0
    0.9850    5.7775   -3.0256 H   0  0
   -0.0545    5.4589   -4.4555 H   0  0
   -0.2726    3.0769   -3.7666 H   0  0
    0.7659    3.3951   -2.3358 H   0  0
   -0.8777    5.0751   -1.5161 H   0  0
   -1.9173    4.7566   -2.9460 H   0  0
   -2.2192    1.9660   -3.1423 H   0  0
   -3.5426    3.0089   -2.6073 H   0  0
   -3.1591    1.5021   -1.6421 H   0  0
    1.6359    3.1269    0.0032 H   0  0
    3.2988    1.2621   -0.0226 H   0  0
    2.3507   -1.1676   -0.0266 H   0  0
    7.7818    7.2698   -9.4230 H   0  0
    7.6857    5.5472   -8.9689 H   0  0
  1  2  1  0
  2  3  1  0
  2 25  2  0
  3  4  1  0
  3  6  1  0
  4  5  3  0
  6  7  2  0
  6  8  1  0
  8  9  1  0
  9 10  1  0
 10 11  2  0
 10 12  1  0
 12 13  1  0
 13 14  1  0
 14 15  1  0
 15 16  1  0
 15 17  1  0
 17 18  2  0
 17 19  2  0
 17 20  1  0
 20 24  1  0
 20 21  2  0
 21 22  1  0
 22 23  2  0
 23 24  1  0
  1 26  1  0
  1 27  1  0
  1 28  1  0
  3 29  1  0
  8 30  1  0
  8 31  1  0
 12 32  1  0
 12 33  1  0
 13 34  1  0
 13 35  1  0
 14 36  1  0
 14 37  1  0
 16 38  1  0
 16 39  1  0
 16 40  1  0
 21 41  1  0
 22 42  1  0
 23 43  1  0
 25 44  1  0
 25 45  1  0
M  CHG  1  25   1
M  END
> <Name>
ZINC11032763

> <reference>
BDB50020383

> <quality>
0.788

> <status>
decoy

$$$$
ZINC32091730
  SciTegic06061311253D

 44 45  0  0  1  0            999 V2000
   -9.6210    2.7048    1.5590 C   0  0
   -8.3520    2.0889    2.0893 C   0  0
   -7.5774    2.7647    2.9648 C   0  0
   -6.4257    2.1927    3.4325 N   0  0
   -6.0636    0.9589    3.0366 C   0  0
   -5.0385    0.4677    3.4682 O   0  0
   -6.8198    0.2608    2.1691 N   0  0
   -7.9592    0.7915    1.6809 C   0  0
   -8.6442    0.1605    0.8964 O   0  0
   -5.5822    2.9282    4.3778 C   0  0  1  0  0  0
   -5.5561    2.2211    5.7136 C   0  0
   -4.3190    2.2099    6.1519 C   0  0
   -3.4465    2.9088    5.1343 C   0  0  2  0  0  0
   -4.2173    2.9443    3.9180 O   0  0
   -2.1531    2.1208    4.9173 C   0  0
   -1.2909    2.8519    4.0433 O   0  0
    0.1609    2.3187    3.5958 P   0  0
    0.8792    1.7928    4.7780 O   0  0
   -0.0184    1.0926    2.4569 N   0  0
   -0.7288    1.5792    1.2668 C   0  0
   -0.0127    1.0858    0.0080 C   0  0
   -0.7527    1.5927   -1.2315 C   0  0
   -0.0473    1.1067   -2.4714 C   0  0
    0.9454    0.4249   -2.3737 O   0  0
   -0.5219    1.4312   -3.6843 O   0  5
    1.0026    3.5306    2.9516 O   0  5
  -10.4115    1.9841    1.8154 H   0  0
   -9.5081    2.6826    0.4650 H   0  0
   -9.8269    3.7146    1.9437 H   0  0
   -7.8708    3.7703    3.3005 H   0  0
   -6.5270   -0.6825    1.8770 H   0  0
   -5.9946    3.9444    4.4635 H   0  0
   -6.4259    1.7894    6.2304 H   0  0
   -3.9755    1.7673    7.0985 H   0  0
   -3.1636    3.9187    5.4662 H   0  0
   -1.6504    1.9676    5.8837 H   0  0
   -2.3881    1.1449    4.4674 H   0  0
    0.3245    0.1290    2.5783 H   0  0
   -1.7606    1.1981    1.2742 H   0  0
   -0.7441    2.6791    1.2717 H   0  0
    1.0191    1.4669   -0.0002 H   0  0
    0.0025   -0.0141    0.0008 H   0  0
   -0.7680    2.6926   -1.2266 H   0  0
   -1.7845    1.2116   -1.2241 H   0  0
  1  2  1  0
  2  8  1  0
  2  3  2  0
  3  4  1  0
  4  5  1  0
  4 10  1  0
  5  6  2  0
  5  7  1  0
  7  8  1  0
  8  9  2  0
 10 14  1  0
 10 11  1  0
 11 12  2  0
 12 13  1  0
 13 14  1  0
 13 15  1  0
 15 16  1  0
 16 17  1  0
 17 18  2  0
 17 19  1  0
 17 26  1  0
 19 20  1  0
 20 21  1  0
 21 22  1  0
 22 23  1  0
 23 24  2  0
 23 25  1  0
  1 27  1  0
  1 28  1  0
  1 29  1  0
  3 30  1  0
  7 31  1  0
 10 32  1  0
 11 33  1  0
 12 34  1  0
 13 35  1  0
 15 36  1  0
 15 37  1  0
 19 38  1  0
 20 39  1  0
 20 40  1  0
 21 41  1  0
 21 42  1  0
 22 43  1  0
 22 44  1  0
M  CHG  2  25  -1  26  -1
M  END
> <Name>
ZINC32091730

> <reference>
BDB50020383

> <quality>
0.773

> <status>
decoy

$$$$
ZINC32071453
  SciTegic06061311253D

 59 60  0  0  1  0            999 V2000
   -1.1376   -9.0433   -2.0921 C   0  0
   -0.1341   -7.9013   -2.2647 C   0  0
   -0.3472   -6.9087   -1.2266 O   0  0
    0.4575   -5.8344   -1.2363 C   0  0
    1.3116   -5.7269   -2.0841 O   0  0
    0.2956   -4.7623   -0.1897 C   0  0
    1.3287   -3.6588   -0.4259 C   0  0
    1.1709   -2.6137    0.5943 N   0  3
    2.0714   -1.4828    0.3332 C   0  0  2  0  0  0
    3.4221   -1.7410    1.0038 C   0  0
    3.2087   -2.0356    2.4662 C   0  0
    2.0961   -1.9915    2.9353 O   0  0
    4.2547   -2.3470    3.2477 O   0  0
    3.9748   -2.6187    4.6463 C   0  0
    5.2797   -2.9523    5.3721 C   0  0
    1.4576   -0.2008    0.8995 C   0  0  2  0  0  0
    0.0946    0.0678    0.2288 C   0  0  1  0  0  0
    0.0927    1.6075    0.0674 C   0  0  2  0  0  0
    1.6088    1.8910   -0.1751 C   0  0  2  0  0  0
    2.3073    0.9139    0.6096 O   0  0
    1.7931    3.1837    0.4356 O   0  0
    0.7221    3.3800    1.3667 C   0  0  1  0  0  0
   -0.1190    2.2150    1.3586 O   0  0
    1.2937    3.5913    2.7701 C   0  0
   -0.0978    4.6047    0.9561 C   0  0
    0.0212   -0.5753   -1.0452 O   0  0
   -1.3110   -0.8605   -1.4764 C   0  0
   -2.1613   -8.6479   -2.1684 H   0  0
   -0.9979   -9.5096   -1.1057 H   0  0
   -0.9767   -9.7957   -2.8783 H   0  0
    0.8892   -8.2975   -2.1880 H   0  0
   -0.2737   -7.4349   -3.2511 H   0  0
   -0.7165   -4.3363   -0.2545 H   0  0
    0.4470   -5.1975    0.8091 H   0  0
    2.3411   -4.0841   -0.3608 H   0  0
    1.1781   -3.2216   -1.4240 H   0  0
    0.1967   -2.2794    0.5903 H   0  0
    1.3827   -3.0084    1.5218 H   0  0
    2.2159   -1.3720   -0.7516 H   0  0
    3.9110   -2.6019    0.5244 H   0  0
    4.0607   -0.8515    0.8991 H   0  0
    3.2844   -3.4715    4.7243 H   0  0
    3.5157   -1.7318    5.1075 H   0  0
    5.9710   -2.1000    5.2961 H   0  0
    5.7400   -3.8391    4.9120 H   0  0
    5.0684   -3.1583    6.4318 H   0  0
    1.3376   -0.3248    1.9859 H   0  0
   -0.7606   -0.3134    0.8062 H   0  0
   -0.6373    1.9540   -0.6789 H   0  0
    1.9406    1.8592   -1.2234 H   0  0
    1.9461    4.4769    2.7706 H   0  0
    1.8777    2.7070    3.0650 H   0  0
    0.4708    3.7419    3.4843 H   0  0
   -0.5122    4.4476   -0.0507 H   0  0
    0.5496    5.4940    0.9501 H   0  0
   -0.9198    4.7546    1.6715 H   0  0
   -1.8590    0.0926   -1.5125 H   0  0
   -1.7767   -1.5009   -0.7129 H   0  0
   -1.3207   -1.3542   -2.4593 H   0  0
  1  2  1  0
  2  3  1  0
  3  4  1  0
  4  5  2  0
  4  6  1  0
  6  7  1  0
  7  8  1  0
  8  9  1  0
  9 10  1  0
  9 16  1  0
 10 11  1  0
 11 12  2  0
 11 13  1  0
 13 14  1  0
 14 15  1  0
 16 20  1  0
 16 17  1  0
 17 18  1  0
 17 26  1  0
 18 23  1  0
 18 19  1  0
 19 20  1  0
 19 21  1  0
 21 22  1  0
 22 23  1  0
 22 24  1  0
 22 25  1  0
 26 27  1  0
  1 28  1  0
  1 29  1  0
  1 30  1  0
  2 31  1  0
  2 32  1  0
  6 33  1  0
  6 34  1  0
  7 35  1  0
  7 36  1  0
  8 37  1  0
  8 38  1  0
  9 39  1  0
 10 40  1  0
 10 41  1  0
 14 42  1  0
 14 43  1  0
 15 44  1  0
 15 45  1  0
 15 46  1  0
 16 47  1  0
 17 48  1  0
 18 49  1  0
 19 50  1  0
 24 51  1  0
 24 52  1  0
 24 53  1  0
 25 54  1  0
 25 55  1  0
 25 56  1  0
 27 57  1  0
 27 58  1  0
 27 59  1  0
M  CHG  1   8   1
M  END
> <Name>
ZINC32071453

> <reference>
BDB50020383

> <quality>
0.726

> <status>
decoy

$$$$
ZINC03665167
  SciTegic06061311253D

 53 54  0  0  1  0            999 V2000
    1.8737   -2.6031  -10.1578 C   0  0
    0.8824   -2.2149   -9.0590 C   0  0
    1.0285   -0.7249   -8.7435 C   0  0
    0.0372   -0.3366   -7.6446 C   0  0
   -0.2310    1.9172   -8.4877 C   0  0
    0.3647    3.3194   -8.3464 C   0  0
   -0.5826    1.4540   -6.1373 C   0  0
    0.1667    0.9650   -4.8962 C   0  0
   -0.5267    1.4298   -3.6924 N   0  0
   -0.0441    1.1170   -2.4735 C   0  0
    0.9643    0.4507   -2.3733 O   0  0
   -0.7574    1.5952   -1.2351 C   0  0
   -0.0081    1.1062    0.0060 C   0  0
   -0.8667    1.6818    1.4966 S   0  0
   -0.7644    3.0949    1.6055 O   0  0
   -2.1265    1.0353    1.6162 O   0  0
    0.0884    1.0571    2.8391 C   0  0
    0.7309    1.9086    3.6762 C   0  0
    1.4992    1.4497    4.7537 C   0  0
    1.6433    0.1281    5.0207 C   0  0
    1.0049   -0.8175    4.1949 C   0  0
    0.1868   -0.3310    3.0559 C   0  0
   -0.2447   -1.4429    2.5136 N   0  0
    0.1824   -2.3863    3.1484 O   0  0
    0.8871   -2.1190    4.1010 N   0  0
    0.2052    1.0991   -7.3365 N   0  3
    2.8994   -2.4003   -9.8161 H   0  0
    1.6668   -2.0151  -11.0642 H   0  0
    1.7692   -3.6743  -10.3851 H   0  0
   -0.1430   -2.4178   -9.4017 H   0  0
    1.0892   -2.8028   -8.1526 H   0  0
    0.8209   -0.1352   -9.6486 H   0  0
    2.0536   -0.5214   -8.4004 H   0  0
    0.2354   -0.9321   -6.7412 H   0  0
   -0.9898   -0.5203   -7.9933 H   0  0
   -1.3290    1.9825   -8.4980 H   0  0
    0.1241    1.4572   -9.4217 H   0  0
    1.4630    3.2597   -8.3360 H   0  0
    0.0114    3.7835   -7.4137 H   0  0
    0.0449    3.9355   -9.1997 H   0  0
   -0.7062    2.5459   -6.0881 H   0  0
   -1.5686    0.9689   -6.1876 H   0  0
    0.2006   -0.1345   -4.8977 H   0  0
    1.1919    1.3635   -4.9048 H   0  0
   -1.3831    1.9957   -3.7775 H   0  0
   -0.7913    2.6947   -1.2328 H   0  0
   -1.7826    1.1967   -1.2242 H   0  0
    0.0257    0.0067    0.0046 H   0  0
    1.0171    1.5047   -0.0025 H   0  0
    0.6462    2.9917    3.5040 H   0  0
    2.0005    2.1831    5.4025 H   0  0
    2.2532   -0.2024    5.8744 H   0  0
    1.2007    1.2871   -7.1505 H   0  0
  1  2  1  0
  2  3  1  0
  3  4  1  0
  4 26  1  0
  5  6  1  0
  5 26  1  0
  7  8  1  0
  7 26  1  0
  8  9  1  0
  9 10  1  0
 10 11  2  0
 10 12  1  0
 12 13  1  0
 13 14  1  0
 14 15  2  0
 14 16  2  0
 14 17  1  0
 17 22  1  0
 17 18  2  0
 18 19  1  0
 19 20  2  0
 20 21  1  0
 21 25  2  0
 21 22  1  0
 22 23  2  0
 23 24  1  0
 24 25  1  0
  1 27  1  0
  1 28  1  0
  1 29  1  0
  2 30  1  0
  2 31  1  0
  3 32  1  0
  3 33  1  0
  4 34  1  0
  4 35  1  0
  5 36  1  0
  5 37  1  0
  6 38  1  0
  6 39  1  0
  6 40  1  0
  7 41  1  0
  7 42  1  0
  8 43  1  0
  8 44  1  0
  9 45  1  0
 12 46  1  0
 12 47  1  0
 13 48  1  0
 13 49  1  0
 18 50  1  0
 19 51  1  0
 20 52  1  0
 26 53  1  0
M  CHG  1  26   1
M  END
> <Name>
ZINC03665167

> <reference>
BDB50020383

> <quality>
0.718

> <status>
decoy

$$$$
ZINC01696547
  SciTegic06061311253D

 52 52  0  0  0  0            999 V2000
    4.0074    0.4329    0.1335 C   0  0
    5.0943    0.8673    0.8678 C   0  0
    5.5840    2.1535    0.6899 C   0  0
    4.9815    3.0030   -0.2251 C   0  0
    3.8941    2.5632   -0.9641 C   0  0
    3.4051    1.2777   -0.7791 C   0  0
    2.2202    0.8006   -1.5786 C   0  0
    1.0836   -0.4500    0.1554 C   0  0
   -0.2810    0.1971   -0.0895 C   0  0
   -1.0135    0.2942    1.1836 C   0  0
   -1.5789    0.3691    2.1661 N   0  0
    1.0309   -1.2338   -2.1349 C   0  0
    1.0963   -2.7420   -1.8858 C   0  0
    0.2907   -3.4421   -2.8995 C   0  0
   -0.3310   -3.9824   -3.6818 N   0  0
    3.3045    3.3919   -1.8655 O   0  0
    6.6530    2.5801    1.4124 O   0  0
    5.7488   -0.0567    1.8623 C   0  0
    7.8641   -1.1165    2.3769 C   0  0
    9.2706   -1.3725    1.8318 C   0  0
   10.1090   -1.9560    2.8917 C   0  0
   10.7560   -2.4063    3.7097 N   0  0
    6.8105   -1.4960    0.2302 C   0  0
    6.1151   -2.7424    0.7816 C   0  0
    5.9994   -3.7515   -0.2838 C   0  0
    5.9100   -4.5302   -1.1061 N   0  0
    1.8443   -0.5492   -1.1080 N   0  0
    7.0414   -0.5116    1.3083 N   0  0
    3.6210   -0.5871    0.2757 H   0  0
    5.3656    4.0243   -0.3645 H   0  0
    2.4869    0.7575   -2.6449 H   0  0
    1.3754    1.4899   -1.4329 H   0  0
    0.9404   -1.4575    0.5730 H   0  0
    1.6515    0.1585    0.8746 H   0  0
   -0.1394    1.2044   -0.5082 H   0  0
   -0.8574   -0.4167   -0.7974 H   0  0
   -0.0126   -0.8926   -2.0657 H   0  0
    1.4321   -1.0074   -3.1338 H   0  0
    0.7004   -2.9669   -0.8845 H   0  0
    2.1412   -3.0796   -1.9513 H   0  0
    4.0339    3.6629   -2.4776 H   0  0
    7.3685    1.9232    1.2209 H   0  0
    5.0993   -0.9261    2.0420 H   0  0
    5.9217    0.4807    2.8064 H   0  0
    7.4131   -2.0683    2.6941 H   0  0
    7.9195   -0.4277    3.2327 H   0  0
    9.2138   -2.0708    0.9838 H   0  0
    9.7133   -0.4232    1.4960 H   0  0
    7.7757   -1.7831   -0.2124 H   0  0
    6.1808   -1.0407   -0.5484 H   0  0
    6.7056   -3.1542    1.6133 H   0  0
    5.1111   -2.4742    1.1422 H   0  0
  1  6  2  0
  1  2  1  0
  2  3  2  0
  2 18  1  0
  3  4  1  0
  3 17  1  0
  4  5  2  0
  5  6  1  0
  5 16  1  0
  6  7  1  0
  7 27  1  0
  8  9  1  0
  8 27  1  0
  9 10  1  0
 10 11  3  0
 12 13  1  0
 12 27  1  0
 13 14  1  0
 14 15  3  0
 18 28  1  0
 19 20  1  0
 19 28  1  0
 20 21  1  0
 21 22  3  0
 23 24  1  0
 23 28  1  0
 24 25  1  0
 25 26  3  0
  1 29  1  0
  4 30  1  0
  7 31  1  0
  7 32  1  0
  8 33  1  0
  8 34  1  0
  9 35  1  0
  9 36  1  0
 12 37  1  0
 12 38  1  0
 13 39  1  0
 13 40  1  0
 16 41  1  0
 17 42  1  0
 18 43  1  0
 18 44  1  0
 19 45  1  0
 19 46  1  0
 20 47  1  0
 20 48  1  0
 23 49  1  0
 23 50  1  0
 24 51  1  0
 24 52  1  0
M  END
> <Name>
ZINC01696547

> <reference>
BDB50020383

> <quality>
0.710

> <status>
decoy

$$$$
ZINC31598706
  SciTegic06061311253D

 46 47  0  0  0  0            999 V2000
   -0.0127    1.0858    0.0080 C   0  0
   -0.6984    1.5583    1.2133 N   0  0
   -0.1306    1.8271    2.4052 C   0  0
   -1.0462    2.2280    3.2500 N   0  0
   -2.2402    2.2382    2.6520 C   0  0
   -2.0481    1.8183    1.3417 C   0  0
   -3.1610    1.7292    0.4780 C   0  0
   -3.0190    1.3592   -0.6737 O   0  0
   -4.3831    2.0645    0.9414 N   0  0
   -4.5538    2.4743    2.2101 C   0  0
   -5.6700    2.7676    2.5931 O   0  0
   -3.5201    2.5679    3.0677 N   0  0
   -3.7489    3.0195    4.4424 C   0  0
   -5.5414    1.9801    0.0484 C   0  0
   -5.7267    3.3160   -0.6741 C   0  0
   -6.9365    3.2279   -1.6067 C   0  0
   -7.1217    4.5638   -2.3293 C   0  0
   -8.2832    4.4792   -3.2247 N   0  3
   -8.4923    5.7468   -3.9369 C   0  0
   -9.7077    5.6202   -4.8575 C   0  0
   -9.9658    7.1855   -5.7371 S   0  0
   -8.3884    7.2868   -7.0425 S   0  0
   -8.4178    8.5872   -7.6148 O   0  0
   -7.2543    6.7853   -6.3487 O   0  0
   -8.6754    6.3079   -8.1720 O   0  5
   -0.3089    1.8372   -0.7388 H   0  0
   -0.5813    0.1784   -0.2435 H   0  0
    1.0736    0.9293    0.0814 H   0  0
    0.9406    1.7250    2.6337 H   0  0
   -3.0865    3.8882    4.5715 H   0  0
   -3.3538    2.2129    5.0774 H   0  0
   -4.7996    3.2550    4.6673 H   0  0
   -5.3766    1.1833   -0.6918 H   0  0
   -6.4432    1.7538    0.6362 H   0  0
   -5.8919    4.1132    0.0656 H   0  0
   -4.8262    3.5434   -1.2634 H   0  0
   -6.7718    2.4310   -2.3469 H   0  0
   -7.8383    3.0017   -1.0189 H   0  0
   -7.2869    5.3611   -1.5897 H   0  0
   -6.2211    4.7911   -2.9186 H   0  0
   -8.1293    3.7263   -3.9105 H   0  0
   -9.1239    4.2583   -2.6721 H   0  0
   -8.6671    6.5523   -3.2085 H   0  0
   -7.6014    5.9825   -4.5375 H   0  0
  -10.6000    5.3857   -4.2585 H   0  0
   -9.5334    4.8151   -5.5865 H   0  0
  1  2  1  0
  2  6  1  0
  2  3  1  0
  3  4  2  0
  4  5  1  0
  5 12  1  0
  5  6  2  0
  6  7  1  0
  7  8  2  0
  7  9  1  0
  9 10  1  0
  9 14  1  0
 10 11  2  0
 10 12  1  0
 12 13  1  0
 14 15  1  0
 15 16  1  0
 16 17  1  0
 17 18  1  0
 18 19  1  0
 19 20  1  0
 20 21  1  0
 21 22  1  0
 22 23  2  0
 22 24  2  0
 22 25  1  0
  1 26  1  0
  1 27  1  0
  1 28  1  0
  3 29  1  0
 13 30  1  0
 13 31  1  0
 13 32  1  0
 14 33  1  0
 14 34  1  0
 15 35  1  0
 15 36  1  0
 16 37  1  0
 16 38  1  0
 17 39  1  0
 17 40  1  0
 18 41  1  0
 18 42  1  0
 19 43  1  0
 19 44  1  0
 20 45  1  0
 20 46  1  0
M  CHG  2  18   1  25  -1
M  END
> <Name>
ZINC31598706

> <reference>
BDB50020383

> <quality>
0.701

> <status>
decoy

$$$$
ZINC04769353
  SciTegic06061311253D

 51 52  0  0  0  0            999 V2000
  -14.7345   -3.2226   -1.5608 C   0  0
  -13.5665   -2.3830   -2.0820 C   0  0
  -14.4901   -0.3556   -1.1337 C   0  0
  -14.5790    0.4173   -2.4511 C   0  0
  -12.9874   -1.7297    0.1765 C   0  0
  -11.6404   -2.4540    0.1356 C   0  0
  -10.5941   -1.5108   -0.2164 O   0  0
   -9.3382   -1.9919   -0.2958 C   0  0
   -9.1230   -3.1674   -0.0769 O   0  0
   -8.2233   -1.0907   -0.6488 C   0  0
   -6.9203   -1.5901   -0.7312 C   0  0
   -5.8848   -0.7536   -1.0594 C   0  0
   -6.1323    0.5996   -1.3119 C   0  0
   -7.4354    1.1000   -1.2242 C   0  0
   -8.4711    0.2617   -0.9011 C   0  0
   -5.1004    1.4338   -1.6386 N   0  0
   -5.3289    2.6818   -1.8714 N   0  0
   -4.2992    3.5142   -2.1975 C   0  0
   -2.9987    3.0180   -2.2860 C   0  0
   -1.9522    3.8772   -2.6151 C   0  0
   -2.2097    5.2304   -2.8661 C   0  0
   -3.4943    5.7195   -2.7839 C   0  0
   -4.5449    4.8749   -2.4518 C   0  0
   -5.8072    5.3619   -2.3732 O   0  0
   -0.5737    3.3598   -2.7050 C   0  0
   -0.3501    2.1856   -2.4872 O   0  0
  -13.3069   -1.2403   -1.1812 N   0  3
    0.4368    4.1882   -3.0341 O   0  5
  -15.6329   -2.5907   -1.5017 H   0  0
  -14.4881   -3.5963   -0.5560 H   0  0
  -14.9195   -4.0698   -2.2376 H   0  0
  -12.6650   -3.0105   -2.1418 H   0  0
  -13.8076   -2.0057   -3.0868 H   0  0
  -14.3874    0.3518   -0.2976 H   0  0
  -15.3978   -0.9622   -0.9992 H   0  0
  -14.6822   -0.2860   -3.2906 H   0  0
  -13.6731    1.0259   -2.5890 H   0  0
  -15.4576    1.0786   -2.4239 H   0  0
  -12.9277   -0.8778    0.8698 H   0  0
  -13.7704   -2.4266    0.5101 H   0  0
  -11.4262   -2.8863    1.1242 H   0  0
  -11.6772   -3.2568   -0.6155 H   0  0
   -6.7257   -2.6544   -0.5327 H   0  0
   -4.8595   -1.1467   -1.1241 H   0  0
   -7.6293    2.1659   -1.4144 H   0  0
   -9.4972    0.6534   -0.8404 H   0  0
   -2.8000    1.9528   -2.0968 H   0  0
   -1.3824    5.9056   -3.1300 H   0  0
   -3.6889    6.7838   -2.9822 H   0  0
   -6.1111    5.1340   -1.4590 H   0  0
  -12.5037   -0.7058   -1.5418 H   0  0
  1  2  1  0
  2 27  1  0
  3  4  1  0
  3 27  1  0
  5  6  1  0
  5 27  1  0
  6  7  1  0
  7  8  1  0
  8  9  2  0
  8 10  1  0
 10 15  2  0
 10 11  1  0
 11 12  2  0
 12 13  1  0
 13 14  2  0
 13 16  1  0
 14 15  1  0
 16 17  2  0
 17 18  1  0
 18 23  2  0
 18 19  1  0
 19 20  2  0
 20 21  1  0
 20 25  1  0
 21 22  2  0
 22 23  1  0
 23 24  1  0
 25 26  2  0
 25 28  1  0
  1 29  1  0
  1 30  1  0
  1 31  1  0
  2 32  1  0
  2 33  1  0
  3 34  1  0
  3 35  1  0
  4 36  1  0
  4 37  1  0
  4 38  1  0
  5 39  1  0
  5 40  1  0
  6 41  1  0
  6 42  1  0
 11 43  1  0
 12 44  1  0
 14 45  1  0
 15 46  1  0
 19 47  1  0
 21 48  1  0
 22 49  1  0
 24 50  1  0
 27 51  1  0
M  CHG  2  27   1  28  -1
M  END
> <Name>
ZINC04769353

> <reference>
BDB50020383

> <quality>
0.701

> <status>
decoy

$$$$
ZINC30267938
  SciTegic06061311253D

 50 51  0  0  1  0            999 V2000
    2.7329    8.2249    1.2718 C   0  0
    3.3477    7.7901    0.0105 N   0  3
    3.5583    6.3363    0.0012 C   0  0
    2.2039    5.6246    0.0103 C   0  0
    2.4234    4.1105    0.0006 C   0  0
    1.1584    3.4458    0.0091 O   0  0
    1.1754    2.0865    0.0020 C   0  0
   -0.0167    1.3773    0.0096 C   0  0
    0.0021   -0.0041    0.0020 C   0  0
    1.2100   -0.6806   -0.0131 C   0  0
    2.4006    0.0261   -0.0207 C   0  0
    2.3848    1.4074   -0.0127 C   0  0
    1.2269   -2.0315   -0.0201 F   0  0
    4.6065    8.5060   -0.2358 C   0  0
    4.3171    9.9674   -0.4631 C   0  0
    3.1747   10.3726   -0.4238 O   0  0
    5.3278   10.8241   -0.7101 N   0  0
    5.0465   12.2447   -0.9310 C   0  0
    6.3379   12.9792   -1.1837 C   0  0
    6.6670   13.3784   -2.4649 C   0  0
    7.8495   14.0560   -2.6967 C   0  0
    8.7103   14.3276   -1.6490 C   0  0
    8.3884   13.9260   -0.3673 C   0  0
    7.1998   13.2500   -0.1312 C   0  0
    6.8810   12.8535    1.1289 O   0  5
    8.1974   14.4865   -4.0693 N   0  0
    9.2412   15.0795   -4.2754 O   0  0
    7.4400   14.2479   -4.9928 O   0  0
    3.3942    7.9443    2.1048 H   0  0
    1.7666    7.7131    1.3912 H   0  0
    2.5813    9.3144    1.2646 H   0  0
    2.6976    8.0206   -0.7545 H   0  0
    4.1151    6.0521   -0.9039 H   0  0
    4.1322    6.0421    0.8923 H   0  0
    1.6467    5.9080    0.9154 H   0  0
    1.6289    5.9167   -0.8808 H   0  0
    2.9802    3.8264   -0.9045 H   0  0
    2.9973    3.8164    0.8917 H   0  0
   -0.9765    1.9145    0.0217 H   0  0
   -0.9431   -0.5668    0.0079 H   0  0
    3.3596   -0.5126   -0.0331 H   0  0
    3.3309    1.9685   -0.0180 H   0  0
    5.0994    8.0878   -1.1259 H   0  0
    5.2682    8.3951    0.6359 H   0  0
    6.2980   10.4800   -0.7436 H   0  0
    4.3851   12.3564   -1.8028 H   0  0
    4.5546   12.6649   -0.0414 H   0  0
    5.9875   13.1569   -3.3011 H   0  0
    9.6522   14.8639   -1.8366 H   0  0
    9.0737   14.1419    0.4656 H   0  0
  1  2  1  0
  2  3  1  0
  2 14  1  0
  3  4  1  0
  4  5  1  0
  5  6  1  0
  6  7  1  0
  7 12  2  0
  7  8  1  0
  8  9  2  0
  9 10  1  0
 10 11  2  0
 10 13  1  0
 11 12  1  0
 14 15  1  0
 15 16  2  0
 15 17  1  0
 17 18  1  0
 18 19  1  0
 19 24  2  0
 19 20  1  0
 20 21  2  0
 21 22  1  0
 21 26  1  0
 22 23  2  0
 23 24  1  0
 24 25  1  0
 26 27  2  0
 26 28  2  0
  1 29  1  0
  1 30  1  0
  1 31  1  0
  2 32  1  0
  3 33  1  0
  3 34  1  0
  4 35  1  0
  4 36  1  0
  5 37  1  0
  5 38  1  0
  8 39  1  0
  9 40  1  0
 11 41  1  0
 12 42  1  0
 14 43  1  0
 14 44  1  0
 17 45  1  0
 18 46  1  0
 18 47  1  0
 20 48  1  0
 22 49  1  0
 23 50  1  0
M  CHG  2   2   1  25  -1
M  END
> <Name>
ZINC30267938

> <reference>
BDB50020383

> <quality>
0.686

> <status>
decoy

$$$$
ZINC19609002
  SciTegic06061311253D

 52 52  0  0  1  0            999 V2000
   -6.4838    1.4196   -4.6302 C   0  0
   -7.6811    0.6086   -4.1307 C   0  0
   -8.1522    1.1630   -2.9007 O   0  0
   -9.2121    0.5597   -2.3230 C   0  0
   -9.7217   -0.4111   -2.8505 O   0  0
   -9.7306    1.0560   -1.1040 C   0  0
   -9.1254    0.7874    0.0730 C   0  0
   -9.6297    1.2632    1.2495 N   0  0
  -10.7288    2.0233    1.3328 C   0  0
  -11.0985    2.4044    2.4263 O   0  0
  -11.4415    2.3753    0.2445 N   0  0
  -10.9836    1.9075   -1.0746 C   0  0  1  0  0  0
  -10.7393    3.1367   -1.9523 C   0  0
   -7.8768   -0.0563    0.0890 C   0  0
   -6.4323    1.0066    0.3613 S   0  0
   -5.0316   -0.1460    0.3535 C   0  0
   -3.7512    0.6179    0.5727 C   0  0
   -3.7805    1.8169    0.7192 O   0  0
   -2.5781   -0.0337    0.6053 O   0  0
   -1.3855    0.7662    0.8205 C   0  0
   -0.1739   -0.1300    0.8263 C   0  0
   -0.3023   -1.3199    0.6657 O   0  0
    1.1985    0.4597    1.0264 C   0  0  1  0  0  0
    2.2443   -0.6563    0.9831 C   0  0
    1.4859    1.4713   -0.0849 C   0  0
    1.2586    1.1626    2.3840 C   0  0
   -5.6787    1.3858   -3.8814 H   0  0
   -6.7890    2.4638   -4.7926 H   0  0
   -6.1207    0.9934   -5.5770 H   0  0
   -8.4858    0.6432   -4.8799 H   0  0
   -7.3759   -0.4357   -3.9683 H   0  0
   -9.1369    1.0239    2.1217 H   0  0
  -12.2864    2.9577    0.3333 H   0  0
  -11.7847    1.2446   -1.4335 H   0  0
  -10.5322    2.8289   -2.9879 H   0  0
   -9.8929    3.7205   -1.5614 H   0  0
  -11.6414    3.7661   -1.9414 H   0  0
   -7.9446   -0.7966    0.8998 H   0  0
   -7.7719   -0.5764   -0.8746 H   0  0
   -4.9872   -0.6642   -0.6158 H   0  0
   -5.1598   -0.8845    1.1586 H   0  0
   -1.4607    1.2860    1.7870 H   0  0
   -1.2895    1.5064    0.0125 H   0  0
    2.2021   -1.1621    0.0072 H   0  0
    2.0387   -1.3841    1.7819 H   0  0
    3.2463   -0.2266    1.1291 H   0  0
    0.7346    2.2742   -0.0546 H   0  0
    1.4432    0.9668   -1.0614 H   0  0
    2.4875    1.9021    0.0606 H   0  0
    1.0524    0.4360    3.1837 H   0  0
    0.5072    1.9653    2.4160 H   0  0
    2.2601    1.5933    2.5307 H   0  0
  1  2  1  0
  2  3  1  0
  3  4  1  0
  4  5  2  0
  4  6  1  0
  6 12  1  0
  6  7  2  0
  7  8  1  0
  7 14  1  0
  8  9  1  0
  9 10  2  0
  9 11  1  0
 11 12  1  0
 12 13  1  0
 14 15  1  0
 15 16  1  0
 16 17  1  0
 17 18  2  0
 17 19  1  0
 19 20  1  0
 20 21  1  0
 21 22  2  0
 21 23  1  0
 23 24  1  0
 23 25  1  0
 23 26  1  0
  1 27  1  0
  1 28  1  0
  1 29  1  0
  2 30  1  0
  2 31  1  0
  8 32  1  0
 11 33  1  0
 12 34  1  0
 13 35  1  0
 13 36  1  0
 13 37  1  0
 14 38  1  0
 14 39  1  0
 16 40  1  0
 16 41  1  0
 20 42  1  0
 20 43  1  0
 24 44  1  0
 24 45  1  0
 24 46  1  0
 25 47  1  0
 25 48  1  0
 25 49  1  0
 26 50  1  0
 26 51  1  0
 26 52  1  0
M  END
> <Name>
ZINC19609002

> <reference>
BDB50020383

> <quality>
0.685

> <status>
decoy

$$$$
ZINC22862556
  SciTegic06061311253D

 57 58  0  0  0  0            999 V2000
    1.5521    1.0596    0.8217 C   0  0
    0.8174    1.5046    1.9637 O   0  0
    0.4999    2.8260    2.0172 C   0  0
    0.8871    3.6703    0.9950 C   0  0
    0.5598    5.0305    1.0510 C   0  0
   -0.1592    5.5295    2.1439 C   0  0
   -0.5429    4.6791    3.1623 C   0  0
   -0.2203    3.3251    3.1003 C   0  0
   -0.6042    2.4907    4.1011 O   0  0
    0.3018    2.3290    5.1943 C   0  0
   -1.2413    5.1629    4.2243 O   0  0
   -1.5431    6.5597    4.2203 C   0  0
    0.9701    5.9316   -0.0336 C   0  0
    1.5932    5.4977   -0.9795 O   0  0
    0.6168    7.3953    0.0285 C   0  0
    1.1362    8.0755   -1.1654 N   0  0
    2.6057    8.0739   -1.1750 C   0  0
    3.1055    8.7193   -2.4697 C   0  0
    2.5825   10.0894   -2.5646 N   0  0
    1.1130   10.0910   -2.5550 C   0  0
    0.6133    9.4456   -1.2603 C   0  0
    3.1020   10.7696   -3.7585 C   0  0
    2.9550   12.2829   -3.5877 C   0  0
    3.7781   12.7223   -2.5054 O   0  0
    3.7140   14.1287   -2.2603 C   0  0
    4.6295   14.4841   -1.0870 C   0  0
    5.9879   14.2246   -1.4472 O   0  0
    2.4737    1.6595    0.7939 H   0  0
    0.9485    1.3275   -0.0580 H   0  0
    1.7709   -0.0181    0.8499 H   0  0
    1.4519    3.2746    0.1380 H   0  0
   -0.4182    6.5975    2.1914 H   0  0
    0.4764    3.3353    5.6027 H   0  0
    1.2479    1.9716    4.7617 H   0  0
   -0.0779    1.6400    5.9632 H   0  0
   -2.1043    6.7522    3.2940 H   0  0
   -0.5791    7.0842    4.1458 H   0  0
   -2.1084    6.8754    5.1095 H   0  0
    1.0633    7.8436    0.9283 H   0  0
   -0.4768    7.5073    0.0671 H   0  0
    2.9730    7.0387   -1.1164 H   0  0
    2.9791    8.6458   -0.3127 H   0  0
    4.2052    8.7463   -2.4656 H   0  0
    2.7554    8.1331   -3.3321 H   0  0
    0.7466   11.1266   -2.6133 H   0  0
    0.7386    9.5196   -3.4172 H   0  0
   -0.4864    9.4194   -1.2647 H   0  0
    0.9635   10.0337   -0.3992 H   0  0
    2.5348   10.4444   -4.6431 H   0  0
    4.1645   10.5176   -3.8911 H   0  0
    3.2668   12.7885   -4.5135 H   0  0
    1.9047   12.5283   -3.3717 H   0  0
    2.6797   14.4128   -2.0165 H   0  0
    4.0418   14.6729   -3.1583 H   0  0
    4.5132   15.5498   -0.8407 H   0  0
    4.3599   13.8740   -0.2123 H   0  0
    6.2324   14.7738   -2.2338 H   0  0
  1  2  1  0
  2  3  1  0
  3  8  2  0
  3  4  1  0
  4  5  2  0
  5  6  1  0
  5 13  1  0
  6  7  2  0
  7  8  1  0
  7 11  1  0
  8  9  1  0
  9 10  1  0
 11 12  1  0
 13 14  2  0
 13 15  1  0
 15 16  1  0
 16 21  1  0
 16 17  1  0
 17 18  1  0
 18 19  1  0
 19 20  1  0
 19 22  1  0
 20 21  1  0
 22 23  1  0
 23 24  1  0
 24 25  1  0
 25 26  1  0
 26 27  1  0
  1 28  1  0
  1 29  1  0
  1 30  1  0
  4 31  1  0
  6 32  1  0
 10 33  1  0
 10 34  1  0
 10 35  1  0
 12 36  1  0
 12 37  1  0
 12 38  1  0
 15 39  1  0
 15 40  1  0
 17 41  1  0
 17 42  1  0
 18 43  1  0
 18 44  1  0
 20 45  1  0
 20 46  1  0
 21 47  1  0
 21 48  1  0
 22 49  1  0
 22 50  1  0
 23 51  1  0
 23 52  1  0
 25 53  1  0
 25 54  1  0
 26 55  1  0
 26 56  1  0
 27 57  1  0
M  END
> <Name>
ZINC22862556

> <reference>
BDB50020383

> <quality>
0.682

> <status>
decoy

$$$$
ZINC24607588
  SciTegic06061311253D

 52 52  0  0  0  0            999 V2000
    1.5167   -8.2839   -3.6028 C   0  0
    1.8960   -7.3337   -2.4653 C   0  0
    1.9006   -5.9552   -2.9614 N   0  0
    3.0938   -5.4178   -3.6201 C   0  0
    4.0635   -4.8853   -2.5632 C   0  0
    0.5571   -5.0047   -2.7778 S   0  0
   -0.5502   -5.8864   -2.6526 O   0  0
    0.6254   -4.0058   -3.7862 O   0  0
    0.7151   -4.1722   -1.2329 C   0  0
    0.6042   -4.8908   -0.0342 C   0  0
    0.7296   -4.2309    1.1529 C   0  0
    0.9730   -2.8468    1.1481 C   0  0
    1.0929   -2.2448    2.2031 O   0  0
    1.0691   -2.1835   -0.0199 N   0  0
    0.9442   -2.8386   -1.2024 C   0  0
    1.3172   -0.7397   -0.0145 C   0  0
    0.0021   -0.0041    0.0020 C   0  0
   -1.0399   -0.6247    0.0086 O   0  0
   -0.0162    1.3436    0.0094 N   0  0
   -1.2389    2.0275    0.0189 N   0  0
   -1.2572    3.3751    0.0264 C   0  0
   -0.2152    3.9957    0.0248 O   0  0
   -2.5724    4.1108    0.0366 C   0  0
   -2.3132    5.6187    0.0436 C   0  0  1  0  0  0
   -1.6322    6.0252   -1.2648 C   0  0
   -3.6425    6.3640    0.1796 C   0  0
    2.2485   -8.1911   -4.4188 H   0  0
    0.5152   -8.0267   -3.9782 H   0  0
    1.5131   -9.3191   -3.2309 H   0  0
    1.1636   -7.4269   -1.6499 H   0  0
    2.8975   -7.5908   -2.0898 H   0  0
    3.5840   -6.2149   -4.1983 H   0  0
    2.8039   -4.5998   -4.2960 H   0  0
    4.3554   -5.7024   -1.8871 H   0  0
    3.5747   -4.0879   -1.9841 H   0  0
    4.9597   -4.4816   -3.0571 H   0  0
    0.4181   -5.9748   -0.0509 H   0  0
    0.6411   -4.7764    2.1040 H   0  0
    1.0301   -2.2796   -2.1459 H   0  0
    1.8816   -0.4601   -0.9164 H   0  0
    1.8984   -0.4707    0.8798 H   0  0
    0.8687    1.8707    0.0081 H   0  0
   -2.1238    1.5004    0.0202 H   0  0
   -3.1421    3.8333    0.9357 H   0  0
   -3.1496    3.8427   -0.8606 H   0  0
   -1.6608    5.8747    0.8915 H   0  0
   -2.2840    5.7699   -2.1133 H   0  0
   -0.6762    5.4900   -1.3635 H   0  0
   -1.4455    7.1092   -1.2604 H   0  0
   -4.1329    6.0726    1.1201 H   0  0
   -4.2955    6.1089   -0.6680 H   0  0
   -3.4569    7.4482    0.1847 H   0  0
  1  2  1  0
  2  3  1  0
  3  4  1  0
  3  6  1  0
  4  5  1  0
  6  7  2  0
  6  8  2  0
  6  9  1  0
  9 15  2  0
  9 10  1  0
 10 11  2  0
 11 12  1  0
 12 13  2  0
 12 14  1  0
 14 15  1  0
 14 16  1  0
 16 17  1  0
 17 18  2  0
 17 19  1  0
 19 20  1  0
 20 21  1  0
 21 22  2  0
 21 23  1  0
 23 24  1  0
 24 25  1  0
 24 26  1  0
  1 27  1  0
  1 28  1  0
  1 29  1  0
  2 30  1  0
  2 31  1  0
  4 32  1  0
  4 33  1  0
  5 34  1  0
  5 35  1  0
  5 36  1  0
 10 37  1  0
 11 38  1  0
 15 39  1  0
 16 40  1  0
 16 41  1  0
 19 42  1  0
 20 43  1  0
 23 44  1  0
 23 45  1  0
 24 46  1  0
 25 47  1  0
 25 48  1  0
 25 49  1  0
 26 50  1  0
 26 51  1  0
 26 52  1  0
M  END
> <Name>
ZINC24607588

> <reference>
BDB50020383

> <quality>
0.675

> <status>
decoy

$$$$
ZINC27431772
  SciTegic06061311253D

 50 51  0  0  1  0            999 V2000
    2.0002    8.0043   -2.8575 C   0  0
    2.0496    7.4873   -1.4184 C   0  0
    2.1574    5.9611   -1.4281 C   0  0
    2.2068    5.4442    0.0111 C   0  0
    2.3100    3.9829    0.0018 N   0  0
    3.5293    3.4128   -0.0124 C   0  0
    4.5318    4.1076   -0.0175 O   0  0
    3.6401    2.0044   -0.0210 C   0  0
    2.4898    1.2732   -0.0090 C   0  0
    1.2551    1.9667    0.0006 C   0  0
    1.2350    3.2810    0.0079 N   0  0
   -0.0144    1.2105    0.0087 C   0  0
    0.0021   -0.0041    0.0020 O   0  0
   -1.1901    1.8682    0.0178 O   0  0
   -2.3970    1.0609    0.0192 C   0  0
   -3.6045    1.9626    0.0298 C   0  0
   -3.4619    3.1669    0.0357 O   0  0
   -4.8428    1.4305    0.0328 N   0  0
   -5.9653    2.2688    0.0427 N   0  0
   -6.7425    2.4805    1.1231 C   0  0
   -6.6074    2.0000    2.2279 O   0  0
   -7.8196    3.4462    0.6701 C   0  0  2  0  0  0
   -7.4983    3.6829   -0.7479 N   0  5
   -6.4014    2.9534   -1.0208 C   0  0
   -5.8664    2.9201   -2.1116 O   0  0
   -7.7463    4.7520    1.4640 C   0  0
   -9.2044    2.8105    0.8094 C   0  0
  -10.2462    3.7044    0.1338 C   0  0
    1.1254    7.5789   -3.3712 H   0  0
    2.9168    7.7056   -3.3872 H   0  0
    1.9227    9.1015   -2.8512 H   0  0
    2.9248    7.9129   -0.9056 H   0  0
    1.1330    7.7860   -0.8886 H   0  0
    1.2823    5.5348   -1.9404 H   0  0
    3.0741    5.6605   -1.9565 H   0  0
    3.0820    5.8698    0.5239 H   0  0
    1.2902    5.7429    0.5408 H   0  0
    4.6242    1.5131   -0.0369 H   0  0
    2.5198    0.1736   -0.0068 H   0  0
   -2.4104    0.4209    0.9138 H   0  0
   -2.4182    0.4312   -0.8825 H   0  0
   -4.9639    0.4077    0.0278 H   0  0
   -6.7568    5.2077    1.3115 H   0  0
   -7.8796    4.5282    2.5327 H   0  0
   -8.5321    5.4438    1.1265 H   0  0
   -9.4529    2.7002    1.8753 H   0  0
   -9.2039    1.8211    0.3286 H   0  0
   -9.9999    3.8149   -0.9326 H   0  0
  -10.2480    4.6943    0.6136 H   0  0
  -11.2420    3.2480    0.2336 H   0  0
  1  2  1  0
  2  3  1  0
  3  4  1  0
  4  5  1  0
  5 11  1  0
  5  6  1  0
  6  7  2  0
  6  8  1  0
  8  9  2  0
  9 10  1  0
 10 11  2  0
 10 12  1  0
 12 13  2  0
 12 14  1  0
 14 15  1  0
 15 16  1  0
 16 17  2  0
 16 18  1  0
 18 19  1  0
 19 24  1  0
 19 20  1  0
 20 21  2  0
 20 22  1  0
 22 23  1  0
 22 26  1  0
 22 27  1  0
 23 24  1  0
 24 25  2  0
 27 28  1  0
  1 29  1  0
  1 30  1  0
  1 31  1  0
  2 32  1  0
  2 33  1  0
  3 34  1  0
  3 35  1  0
  4 36  1  0
  4 37  1  0
  8 38  1  0
  9 39  1  0
 15 40  1  0
 15 41  1  0
 18 42  1  0
 26 43  1  0
 26 44  1  0
 26 45  1  0
 27 46  1  0
 27 47  1  0
 28 48  1  0
 28 49  1  0
 28 50  1  0
M  CHG  1  23  -1
M  END
> <Name>
ZINC27431772

> <reference>
BDB50020383

> <quality>
0.674

> <status>
decoy

$$$$
ZINC24329648
  SciTegic06061311253D

 50 51  0  0  0  0            999 V2000
    9.6294    4.1474   -0.8210 C   0  0
    8.3593    3.3154   -1.0097 C   0  0
    7.2268    4.0257   -0.4429 O   0  0
    6.0246    3.4253   -0.5268 C   0  0
    5.9245    2.3376   -1.0591 O   0  0
    4.9322    4.0307   -0.0204 N   0  0
    3.7073    3.3626   -0.0071 C   0  0
    2.5244    4.0825   -0.1758 C   0  0
    1.3193    3.4431   -0.1651 C   0  0
    1.2689    2.0559    0.0162 C   0  0
   -0.0106    1.3442    0.0330 C   0  0
    0.0062   -0.0024    0.2130 C   0  0
    1.2356   -0.6727    0.3769 C   0  0
    1.2364   -1.8801    0.5374 O   0  0
    2.4052   -0.0144    0.3610 O   0  0
    2.4586    1.3236    0.1865 C   0  0
    3.6753    1.9881    0.1732 C   0  0
   -1.3104    2.0843   -0.1507 C   0  0
   -2.4149    1.1432   -0.0982 O   0  0
   -3.6509    1.6453   -0.2461 C   0  0
   -3.8049    2.8319   -0.4138 O   0  0
   -4.8466    0.7290   -0.2029 C   0  0
   -6.1242    1.5484   -0.3956 C   0  0
   -7.3381    0.6181   -0.3518 C   0  0
   -8.5615    1.4027   -0.5363 N   0  0
   -9.7619    0.7899   -0.5337 C   0  0
   -9.8293   -0.4111   -0.3786 O   0  0
  -11.0203    1.5969   -0.7236 C   0  0
    9.8028    4.3156    0.2522 H   0  0
    9.5134    5.1160   -1.3292 H   0  0
   10.4878    3.6099   -1.2502 H   0  0
    8.1866    3.1480   -2.0831 H   0  0
    8.4753    2.3467   -0.5015 H   0  0
    2.5635    5.1725   -0.3183 H   0  0
    0.3898    4.0160   -0.2986 H   0  0
   -0.9370   -0.5682    0.2308 H   0  0
    0.7574   -2.2457   -0.2481 H   0  0
    4.6121    1.4269    0.3052 H   0  0
   -1.4252    2.8286    0.6511 H   0  0
   -1.3092    2.5931   -1.1259 H   0  0
   -4.7658   -0.0176   -1.0066 H   0  0
   -4.8832    0.2177    0.7703 H   0  0
   -6.2059    2.2950    0.4081 H   0  0
   -6.0899    2.0597   -1.3690 H   0  0
   -7.2572   -0.1285   -1.1556 H   0  0
   -7.3746    0.1067    0.6214 H   0  0
   -8.5042    2.4226   -0.6680 H   0  0
  -10.8828    2.1227   -1.6800 H   0  0
  -10.9979    2.3556    0.0726 H   0  0
  -11.9402    0.9941   -0.7039 H   0  0
  1  2  1  0
  2  3  1  0
  3  4  1  0
  4  5  2  0
  4  6  1  0
  6  7  2  3
  7 17  1  0
  7  8  1  0
  8  9  2  0
  9 10  1  0
 10 16  1  0
 10 11  2  0
 11 12  1  0
 11 18  1  0
 12 13  2  0
 13 14  1  0
 13 15  1  0
 15 16  1  0
 16 17  2  0
 18 19  1  0
 19 20  1  0
 20 21  2  0
 20 22  1  0
 22 23  1  0
 23 24  1  0
 24 25  1  0
 25 26  1  0
 26 27  2  0
 26 28  1  0
  1 29  1  0
  1 30  1  0
  1 31  1  0
  2 32  1  0
  2 33  1  0
  8 34  1  0
  9 35  1  0
 12 36  1  0
 14 37  1  0
 17 38  1  0
 18 39  1  0
 18 40  1  0
 22 41  1  0
 22 42  1  0
 23 43  1  0
 23 44  1  0
 24 45  1  0
 24 46  1  0
 25 47  1  0
 28 48  1  0
 28 49  1  0
 28 50  1  0
M  END
> <Name>
ZINC24329648

> <reference>
BDB50020383

> <quality>
0.663

> <status>
decoy

$$$$
ZINC05786736
  SciTegic06061311253D

 48 48  0  0  1  0            999 V2000
    2.5003    1.5459   -0.0140 C   0  0
    1.0414    1.9233    0.0024 C   0  0
   -0.0126    1.0758    0.0080 C   0  0
   -1.1432    1.9353    0.0171 C   0  0
   -0.6740    3.1554    0.0255 N   0  0
    0.5351    3.1648    0.0140 O   0  0
   -2.4851    1.5540    0.0204 N   0  0
   -2.8143    0.2471    0.0146 C   0  0
   -1.9439   -0.5974    0.0065 O   0  0
   -4.2639   -0.1648    0.0181 C   0  0
   -4.3781   -1.9752    0.0087 S   0  0
   -6.1623   -2.3024    0.0140 C   0  0
   -6.4002   -3.7905    0.0068 C   0  0
   -5.4622   -4.5522   -0.0010 O   0  0
   -7.6540   -4.2698    0.0092 O   0  0
   -7.8078   -5.7136    0.0019 C   0  0
   -9.2738   -6.0626    0.0058 C   0  0
  -10.1069   -5.1813    0.0139 O   0  0
   -9.6590   -7.3541    0.0003 N   0  0
  -11.0842   -7.6934    0.0042 C   0  0  1  0  0  0
  -11.7424   -7.1167    1.2592 C   0  0
  -11.7270   -7.1255   -1.1921 C   0  0
  -12.2231   -6.6872   -2.1153 N   0  0
  -11.2463   -9.2148   -0.0035 C   0  0  1  0  0  0
  -10.6889   -9.7936    1.2985 C   0  0
  -12.7297   -9.5690   -0.1253 C   0  0
    2.8927    2.0826    0.8624 H   0  0
    2.8753    2.0919   -0.8922 H   0  0
    2.7294    0.4700   -0.0220 H   0  0
    0.0024   -0.0241    0.0060 H   0  0
   -3.2243    2.2713    0.0273 H   0  0
   -4.7548    0.2283    0.9206 H   0  0
   -4.7629    0.2379   -0.8757 H   0  0
   -6.6210   -1.8542   -0.8797 H   0  0
   -6.6129   -1.8639    0.9166 H   0  0
   -7.3280   -6.1391    0.8956 H   0  0
   -7.3351   -6.1283   -0.9007 H   0  0
   -8.9514   -8.1026   -0.0066 H   0  0
  -11.6266   -6.0228    1.2655 H   0  0
  -11.2628   -7.5407    2.1538 H   0  0
  -12.8126   -7.3711    1.2627 H   0  0
  -10.6971   -9.6378   -0.8575 H   0  0
  -11.2377   -9.3715    2.1532 H   0  0
   -9.6223   -9.5397    1.3869 H   0  0
  -10.8051  -10.8874    1.2937 H   0  0
  -13.1313   -9.1535   -1.0613 H   0  0
  -13.2799   -9.1467    0.7285 H   0  0
  -12.8470  -10.6627   -0.1309 H   0  0
  1  2  1  0
  2  6  1  0
  2  3  2  0
  3  4  1  0
  4  5  2  0
  4  7  1  0
  5  6  1  0
  7  8  1  0
  8  9  2  0
  8 10  1  0
 10 11  1  0
 11 12  1  0
 12 13  1  0
 13 14  2  0
 13 15  1  0
 15 16  1  0
 16 17  1  0
 17 18  2  0
 17 19  1  0
 19 20  1  0
 20 21  1  0
 20 22  1  0
 20 24  1  0
 22 23  3  0
 24 25  1  0
 24 26  1  0
  1 27  1  0
  1 28  1  0
  1 29  1  0
  3 30  1  0
  7 31  1  0
 10 32  1  0
 10 33  1  0
 12 34  1  0
 12 35  1  0
 16 36  1  0
 16 37  1  0
 19 38  1  0
 21 39  1  0
 21 40  1  0
 21 41  1  0
 24 42  1  0
 25 43  1  0
 25 44  1  0
 25 45  1  0
 26 46  1  0
 26 47  1  0
 26 48  1  0
M  END
> <Name>
ZINC05786736

> <reference>
BDB50020383

> <quality>
0.660

> <status>
decoy

$$$$
ZINC22749391
  SciTegic06061311253D

 43 45  0  0  1  0            999 V2000
   12.2320    4.7717    2.5372 C   0  0
   11.4099    4.5925    1.2870 C   0  0
   11.9679    4.0971    0.1531 C   0  0
   10.5548    4.1099   -0.9408 S   0  0
    9.4052    4.7625    0.1855 C   0  0
   10.1331    4.9131    1.2678 N   0  0
    7.9450    5.0708   -0.0239 C   0  5
    7.8032    6.0692   -1.0962 C   0  0
    7.6937    6.8397   -1.9238 N   0  0
    7.2160    3.8102   -0.4116 C   0  0
    7.8150    2.9044   -0.9398 O   0  0
    5.7394    3.6798   -0.1400 C   0  0
    5.1604    2.0645   -0.7158 S   0  0
    3.4554    2.1798   -0.2863 C   0  0
    2.8629    3.1994    0.2907 N   0  0
    1.6145    2.9425    0.4561 N   0  0
    1.3379    1.7542   -0.0013 C   0  0
    2.5014    1.2236   -0.4860 N   0  0
    2.6854   -0.0958   -1.0956 C   0  0
    2.4641    0.0050   -2.6061 C   0  0
    2.6534   -1.3522   -3.2332 C   0  0
    2.9374   -2.3062   -2.5402 O   0  0
    2.5071   -1.5059   -4.5642 N   0  0
   -0.0127    1.0858    0.0080 C   0  0  1  0  0  0
   -1.1356    1.7728    0.7878 C   0  0
   -1.1502    1.7810   -0.7428 C   0  0
   11.7030    4.1927    3.3085 H   0  0
   12.1231    5.8350    2.7969 H   0  0
   13.2837    4.4685    2.4273 H   0  0
   13.0025    3.7767   -0.0391 H   0  0
    5.5558    3.7705    0.9408 H   0  0
    5.1959    4.4743   -0.6723 H   0  0
    3.7073   -0.4518   -0.8982 H   0  0
    1.9612   -0.8036   -0.6661 H   0  0
    3.1883    0.7117   -3.0376 H   0  0
    1.4422    0.3605   -2.8042 H   0  0
    2.2659   -0.6958   -5.1528 H   0  0
    2.6365   -2.4335   -4.9928 H   0  0
    0.4231    0.0758   -0.0016 H   0  0
   -0.8113    2.7430    1.1923 H   0  0
   -1.8506    1.0417    1.1932 H   0  0
   -1.8735    1.0548   -1.1422 H   0  0
   -0.8328    2.7552   -1.1431 H   0  0
  1  2  1  0
  2  6  1  0
  2  3  2  0
  3  4  1  0
  4  5  1  0
  5  6  2  0
  5  7  1  0
  7  8  1  0
  7 10  1  0
  8  9  3  0
 10 11  2  0
 10 12  1  0
 12 13  1  0
 13 14  1  0
 14 18  1  0
 14 15  2  0
 15 16  1  0
 16 17  2  0
 17 18  1  0
 17 24  1  0
 18 19  1  0
 19 20  1  0
 20 21  1  0
 21 22  2  0
 21 23  1  0
 24 26  1  0
 24 25  1  0
 25 26  1  0
  1 27  1  0
  1 28  1  0
  1 29  1  0
  3 30  1  0
 12 31  1  0
 12 32  1  0
 19 33  1  0
 19 34  1  0
 20 35  1  0
 20 36  1  0
 23 37  1  0
 23 38  1  0
 24 39  1  0
 25 40  1  0
 25 41  1  0
 26 42  1  0
 26 43  1  0
M  CHG  1   7  -1
M  END
> <Name>
ZINC22749391

> <reference>
BDB50020383

> <quality>
0.658

> <status>
decoy

$$$$
ZINC09783579
  SciTegic06061311253D

 51 51  0  0  1  0            999 V2000
    3.6445   -3.3516    0.6189 C   0  0
    2.6052   -3.7884    1.6532 C   0  0
    1.7953   -2.5724    2.1074 C   0  0  2  0  0  0
    0.8418   -2.9852    3.2305 C   0  0
    1.0290   -2.0555    0.9876 O   0  0
    0.7750   -0.7375    0.9796 C   0  0
    1.1794   -0.0389    1.8786 O   0  0
   -0.0148   -0.1292   -0.1506 C   0  0
    0.0083    1.3955   -0.0260 C   0  0  2  0  0  0
   -0.8992    1.9995   -1.0627 C   0  0
   -2.0983    1.9029   -0.9089 O   0  0
   -0.4457    2.6364   -2.1434 N   0  0
    0.9594    2.9077   -2.4144 C   0  0
    1.8579    1.9438   -1.6371 C   0  0
    1.3765    1.8871   -0.2464 N   0  0
    2.1585    2.2697    0.7824 C   0  0
    3.7276    2.8853    0.4823 S   0  0
    1.7052    2.1678    2.0476 N   0  0
    2.5196    2.4606    3.0808 C   0  0
    3.6599    2.8157    2.8722 O   0  0
    2.0127    2.3466    4.4955 C   0  0
    3.1277    2.7329    5.4694 C   0  0
    2.6209    2.6189    6.8840 C   0  0
    1.4845    2.2650    7.0919 O   0  0
    3.4319    2.9105    7.9130 O   0  0
    2.8765    2.7784    9.2481 C   0  0
    4.3203   -2.6088    1.0678 H   0  0
    3.1353   -2.9063   -0.2485 H   0  0
    4.2272   -4.2254    0.2919 H   0  0
    1.9297   -4.5310    1.2034 H   0  0
    3.1143   -4.2337    2.5207 H   0  0
    2.4790   -1.7930    2.4748 H   0  0
    1.4213   -3.3767    4.0795 H   0  0
    0.1575   -3.7645    2.8640 H   0  0
    0.2592   -2.1114    3.5575 H   0  0
   -1.0549   -0.4843   -0.1053 H   0  0
    0.4322   -0.4249   -1.1112 H   0  0
   -0.3329    1.6805    0.9802 H   0  0
   -1.1377    2.9590   -2.8347 H   0  0
    1.1502    2.7931   -3.4916 H   0  0
    1.1943    3.9409   -2.1189 H   0  0
    2.8954    2.3088   -1.6542 H   0  0
    1.8031    0.9421   -2.0883 H   0  0
    0.7364    1.8662    2.2249 H   0  0
    1.1556    3.0221    4.6336 H   0  0
    1.6985    1.3108    4.6913 H   0  0
    3.4425    3.7690    5.2759 H   0  0
    3.9850    2.0575    5.3321 H   0  0
    2.5309    1.7380    9.3385 H   0  0
    1.9928    3.4326    9.2824 H   0  0
    3.6008    3.0345   10.0354 H   0  0
  1  2  1  0
  2  3  1  0
  3  4  1  0
  3  5  1  0
  5  6  1  0
  6  7  2  0
  6  8  1  0
  8  9  1  0
  9 15  1  0
  9 10  1  0
 10 11  2  0
 10 12  1  0
 12 13  1  0
 13 14  1  0
 14 15  1  0
 15 16  1  0
 16 17  2  0
 16 18  1  0
 18 19  1  0
 19 20  2  0
 19 21  1  0
 21 22  1  0
 22 23  1  0
 23 24  2  0
 23 25  1  0
 25 26  1  0
  1 27  1  0
  1 28  1  0
  1 29  1  0
  2 30  1  0
  2 31  1  0
  3 32  1  0
  4 33  1  0
  4 34  1  0
  4 35  1  0
  8 36  1  0
  8 37  1  0
  9 38  1  0
 12 39  1  0
 13 40  1  0
 13 41  1  0
 14 42  1  0
 14 43  1  0
 18 44  1  0
 21 45  1  0
 21 46  1  0
 22 47  1  0
 22 48  1  0
 26 49  1  0
 26 50  1  0
 26 51  1  0
M  END
> <Name>
ZINC09783579

> <reference>
BDB50020383

> <quality>
0.651

> <status>
decoy

$$$$
ZINC24707868
  SciTegic06061311253D

 45 46  0  0  0  0            999 V2000
    0.6097    7.0671    2.0970 C   0  0
   -0.1495    5.8441    1.6510 C   0  0
   -1.3673    5.8404    0.9629 C   0  0
   -1.7194    4.5519    0.7466 C   0  0
   -0.7585    3.7680    1.2789 N   0  0
    0.2136    4.6023    1.8458 N   0  0
   -0.7387    2.3032    1.2708 C   0  0
   -0.0225    1.8097    0.0120 C   0  0
    0.0021   -0.0041    0.0020 S   0  0
    0.8352   -0.4880    1.0465 O   0  0
   -1.3147   -0.5105   -0.1678 O   0  0
    0.7947   -0.4113   -1.3938 N   0  0
    2.2072   -0.0612   -1.5629 C   0  0
    2.7836   -0.8418   -2.7159 C   0  0
    2.0835   -1.6144   -3.3354 O   0  0
    4.0772   -0.6813   -3.0586 N   0  0
    4.6375   -1.4401   -4.1795 C   0  0
    6.0905   -1.0800   -4.3534 C   0  0
    7.1297   -1.6947   -3.7605 C   0  0
    8.3009   -1.0374   -4.2025 C   0  0
    7.9073   -0.0604   -5.0391 C   0  0
    6.5678   -0.0946   -5.1313 O   0  0
   -2.9618    4.0773    0.0378 C   0  0
   -2.1354    7.0349    0.5456 N   0  0
   -2.9699    7.5139    1.2924 O   0  0
   -1.9329    7.5389   -0.5446 O   0  0
    1.6033    6.9142    1.6504 H   0  0
    0.7312    6.8987    3.1772 H   0  0
    0.1532    8.0360    1.8461 H   0  0
   -0.2063    1.9386    2.1617 H   0  0
   -1.7703    1.9214    1.2783 H   0  0
   -0.5547    2.1735   -0.8793 H   0  0
    1.0098    2.1896    0.0033 H   0  0
    0.2946   -0.9107   -2.1431 H   0  0
    2.7593   -0.3054   -0.6433 H   0  0
    2.2961    1.0157   -1.7690 H   0  0
    4.6718   -0.0252   -2.5324 H   0  0
    4.5493   -2.5171   -3.9739 H   0  0
    4.0873   -1.1962   -5.1003 H   0  0
    7.0782   -2.5455   -3.0652 H   0  0
    9.3354   -1.2787   -3.9170 H   0  0
    8.5701    0.6467   -5.5595 H   0  0
   -2.9000    4.5989   -0.9287 H   0  0
   -3.7640    4.5784    0.5994 H   0  0
   -3.0888    2.9881   -0.0486 H   0  0
  1  2  1  0
  2  6  2  0
  2  3  1  0
  3  4  2  0
  3 24  1  0
  4  5  1  0
  4 23  1  0
  5  6  1  0
  5  7  1  0
  7  8  1  0
  8  9  1  0
  9 10  2  0
  9 11  2  0
  9 12  1  0
 12 13  1  0
 13 14  1  0
 14 15  2  0
 14 16  1  0
 16 17  1  0
 17 18  1  0
 18 22  1  0
 18 19  2  0
 19 20  1  0
 20 21  2  0
 21 22  1  0
 24 25  2  0
 24 26  2  0
  1 27  1  0
  1 28  1  0
  1 29  1  0
  7 30  1  0
  7 31  1  0
  8 32  1  0
  8 33  1  0
 12 34  1  0
 13 35  1  0
 13 36  1  0
 16 37  1  0
 17 38  1  0
 17 39  1  0
 19 40  1  0
 20 41  1  0
 21 42  1  0
 23 43  1  0
 23 44  1  0
 23 45  1  0
M  END
> <Name>
ZINC24707868

> <reference>
BDB50020383

> <quality>
0.650

> <status>
decoy

$$$$
ZINC20315162
  SciTegic06061311253D

 41 42  0  0  1  0            999 V2000
   -2.0572   -0.0312   -4.0017 C   0  0
   -2.6987   -1.3809   -3.8074 C   0  0
   -2.8426   -1.9109   -2.5190 C   0  0
   -2.4575   -1.3507   -1.2639 C   0  0
   -2.6868   -2.0345   -0.1551 N   0  0
   -3.2729   -3.2182   -0.1648 C   0  0
   -3.6519   -3.7902   -1.2916 N   0  0
   -3.4583   -3.1848   -2.4453 C   0  0
   -3.7985   -3.5726   -4.1429 S   0  0
   -3.1396   -2.0888   -4.8845 C   0  0
   -3.0858   -1.7224   -6.3033 C   0  0
   -2.5968   -0.6609   -6.6389 O   0  0
   -3.5787   -2.5628   -7.2360 O   0  0
   -3.4918   -2.1348   -8.6207 C   0  0
   -4.0969   -3.2099   -9.5257 C   0  0
   -5.4947   -3.3297   -9.2541 O   0  0
   -6.1594   -4.3126  -10.0504 C   0  0
   -1.8485   -0.1137   -1.2084 N   0  0
   -1.5820    0.5141    0.0882 C   0  0  1  0  0  0
   -0.4139    1.4926   -0.0494 C   0  0
    0.8416    0.7315   -0.3894 C   0  0
    0.8057   -0.4702   -0.5093 O   0  0
    1.9985    1.3892   -0.5644 O   0  5
   -2.8093    1.2583    0.5476 C   0  0
   -3.8044    1.2637   -0.1377 O   0  0
   -2.7969    1.9152    1.7182 O   0  5
   -2.8035    0.5642   -4.5481 H   0  0
   -1.2169   -0.2101   -4.6886 H   0  0
   -1.7398    0.4491   -3.0644 H   0  0
   -3.4489   -3.7388    0.7881 H   0  0
   -2.4372   -1.9792   -8.8921 H   0  0
   -4.0463   -1.1935   -8.7492 H   0  0
   -3.9514   -2.9273  -10.5788 H   0  0
   -3.6028   -4.1736   -9.3330 H   0  0
   -5.6643   -5.2777   -9.8674 H   0  0
   -6.0110   -4.0400  -11.1057 H   0  0
   -7.2310   -4.3712   -9.8090 H   0  0
   -1.5813    0.3683   -2.0786 H   0  0
   -1.3259   -0.2612    0.8253 H   0  0
   -0.2704    2.0298    0.8997 H   0  0
   -0.6325    2.2146   -0.8500 H   0  0
  1  2  1  0
  2 10  2  0
  2  3  1  0
  3  8  1  0
  3  4  2  0
  4  5  1  0
  4 18  1  0
  5  6  2  0
  6  7  1  0
  7  8  2  0
  8  9  1  0
  9 10  1  0
 10 11  1  0
 11 12  2  0
 11 13  1  0
 13 14  1  0
 14 15  1  0
 15 16  1  0
 16 17  1  0
 18 19  1  0
 19 20  1  0
 19 24  1  0
 20 21  1  0
 21 22  2  0
 21 23  1  0
 24 25  2  0
 24 26  1  0
  1 27  1  0
  1 28  1  0
  1 29  1  0
  6 30  1  0
 14 31  1  0
 14 32  1  0
 15 33  1  0
 15 34  1  0
 17 35  1  0
 17 36  1  0
 17 37  1  0
 18 38  1  0
 19 39  1  0
 20 40  1  0
 20 41  1  0
M  CHG  2  23  -1  26  -1
M  END
> <Name>
ZINC20315162

> <reference>
BDB50020383

> <quality>
0.650

> <status>
decoy

$$$$
ZINC23391071
  SciTegic06061311253D

 56 56  0  0  0  0            999 V2000
   -1.8885    4.1529   -0.9278 C   0  0
   -2.2810    2.9708   -0.0393 C   0  0
   -1.1541    2.0401    0.0612 N   0  0
   -0.9505    1.0220   -0.9723 C   0  0
   -1.7640   -0.2266   -0.6256 C   0  0
   -0.1065    2.1433    1.3396 S   0  0
    1.1471    1.6593    0.8775 O   0  0
   -0.2650    3.4435    1.8906 O   0  0
   -0.6315    1.0744    2.4903 N   0  0
   -1.9153    1.2926    3.1615 C   0  0  2  0  0  0
   -1.6850    2.0568    4.4668 C   0  0
   -3.0257    2.2847    5.1677 C   0  0
   -3.6765    0.9346    5.4752 C   0  0  1  0  0  0
   -3.9068    0.1704    4.1699 C   0  0
   -2.5660   -0.0575    3.4689 C   0  0
   -2.7952    0.1553    6.3483 N   0  0
   -3.0290    0.1711    7.9877 S   0  0
   -1.9830   -0.6059    8.5546 O   0  0
   -3.2553    1.5257    8.3525 O   0  0
   -4.4396   -0.6423    8.2890 N   0  0
   -4.4322   -2.1024    8.4076 C   0  0
   -4.3187   -2.4937    9.8824 C   0  0
   -5.6949    0.0983    8.4370 C   0  0
   -6.6520   -0.2896    7.3081 C   0  0
   -1.6253    3.7872   -1.9313 H   0  0
   -1.0235    4.6716   -0.4887 H   0  0
   -2.7343    4.8521   -1.0037 H   0  0
   -2.5437    3.3374    0.9640 H   0  0
   -3.1460    2.4521   -0.4783 H   0  0
   -1.2806    1.4156   -1.9450 H   0  0
    0.1166    0.7603   -1.0256 H   0  0
   -2.8316    0.0331   -0.5730 H   0  0
   -1.4350   -0.6215    0.3469 H   0  0
   -1.6115   -0.9915   -1.4013 H   0  0
   -0.0554    0.2561    2.7341 H   0  0
   -2.5770    1.8777    2.5059 H   0  0
   -1.2174    3.0279    4.2469 H   0  0
   -1.0238    1.4715    5.1227 H   0  0
   -2.8602    2.8336    6.1065 H   0  0
   -3.6883    2.8696    4.5128 H   0  0
   -4.6404    1.0985    5.9791 H   0  0
   -4.3741   -0.8006    4.3909 H   0  0
   -4.5683    0.7548    3.5134 H   0  0
   -2.7322   -0.6067    2.5304 H   0  0
   -1.9052   -0.6435    4.1246 H   0  0
   -2.0302   -0.4024    5.9425 H   0  0
   -5.3659   -2.5089    7.9918 H   0  0
   -3.5749   -2.5121    7.8533 H   0  0
   -5.1759   -2.0857   10.4381 H   0  0
   -3.3853   -2.0879   10.2997 H   0  0
   -4.3131   -3.5900    9.9722 H   0  0
   -6.1535   -0.1470    9.4063 H   0  0
   -5.4924    1.1785    8.3901 H   0  0
   -6.8566   -1.3694    7.3542 H   0  0
   -6.1948   -0.0447    6.3380 H   0  0
   -7.5948    0.2662    7.4186 H   0  0
  1  2  1  0
  2  3  1  0
  3  4  1  0
  3  6  1  0
  4  5  1  0
  6  7  2  0
  6  8  2  0
  6  9  1  0
  9 10  1  0
 10 15  1  0
 10 11  1  0
 11 12  1  0
 12 13  1  0
 13 14  1  0
 13 16  1  0
 14 15  1  0
 16 17  1  0
 17 18  2  0
 17 19  2  0
 17 20  1  0
 20 21  1  0
 20 23  1  0
 21 22  1  0
 23 24  1  0
  1 25  1  0
  1 26  1  0
  1 27  1  0
  2 28  1  0
  2 29  1  0
  4 30  1  0
  4 31  1  0
  5 32  1  0
  5 33  1  0
  5 34  1  0
  9 35  1  0
 10 36  1  0
 11 37  1  0
 11 38  1  0
 12 39  1  0
 12 40  1  0
 13 41  1  0
 14 42  1  0
 14 43  1  0
 15 44  1  0
 15 45  1  0
 16 46  1  0
 21 47  1  0
 21 48  1  0
 22 49  1  0
 22 50  1  0
 22 51  1  0
 23 52  1  0
 23 53  1  0
 24 54  1  0
 24 55  1  0
 24 56  1  0
M  END
> <Name>
ZINC23391071

> <reference>
BDB50020383

> <quality>
0.646

> <status>
decoy

$$$$
ZINC22207912
  SciTegic06061311253D

 42 43  0  0  0  0            999 V2000
   10.0431   -8.8754    2.5732 C   0  0
    9.4642   -9.0612    1.2800 O   0  0
    8.0492   -9.2594    1.2996 C   0  0
    7.5406   -9.4464   -0.1313 C   0  0
    6.0899   -9.6496   -0.1112 N   0  0
    5.4234  -10.8438   -0.1050 C   0  0
    4.1482  -10.5762   -0.0918 N   0  0
    3.9644   -9.3042   -0.0838 N   0  0
    5.1226   -8.6862   -0.0915 C   0  0
    5.3801   -6.9431   -0.0852 S   0  0
    3.6627   -6.3718   -0.0656 C   0  0
    3.6346   -4.8651   -0.0578 C   0  0
    4.6734   -4.2391   -0.0647 O   0  0
    2.4551   -4.2131   -0.0430 N   0  0
    2.4290   -2.8124   -0.0357 N   0  0
    1.2495   -2.1605   -0.0210 C   0  0
    0.2084   -2.7878   -0.0140 O   0  0
    1.2219   -0.6823   -0.0132 C   0  0
    0.0021   -0.0041    0.0020 C   0  0
   -0.0166    1.3754    0.0096 C   0  0
    1.1702    2.0864    0.0021 C   0  0
    2.3828    1.4202   -0.0130 C   0  0
    2.4156    0.0411   -0.0207 C   0  0
    1.1426    3.5663    0.0103 N   0  0
    0.0767    4.1555    0.0236 O   0  0
    2.1859    4.1949    0.0037 O   0  0
    9.8038   -9.7649    3.1745 H   0  0
    9.5551   -8.0032    3.0327 H   0  0
   11.1313   -8.7267    2.5114 H   0  0
    7.8124  -10.1553    1.8923 H   0  0
    7.5611   -8.3824    1.7497 H   0  0
    8.0268  -10.3238   -0.5827 H   0  0
    7.7767   -8.5506   -0.7245 H   0  0
    5.8794  -11.8448   -0.1102 H   0  0
    3.1590   -6.7519    0.8354 H   0  0
    3.1424   -6.7431   -0.9608 H   0  0
    1.5729   -4.7447   -0.0371 H   0  0
    3.3112   -2.2808   -0.0416 H   0  0
   -0.9422   -0.5682    0.0079 H   0  0
   -0.9772    1.9112    0.0216 H   0  0
    3.3228    1.9915   -0.0189 H   0  0
    3.3803   -0.4873   -0.0327 H   0  0
  1  2  1  0
  2  3  1  0
  3  4  1  0
  4  5  1  0
  5  9  1  0
  5  6  1  0
  6  7  2  0
  7  8  1  0
  8  9  2  0
  9 10  1  0
 10 11  1  0
 11 12  1  0
 12 13  2  0
 12 14  1  0
 14 15  1  0
 15 16  1  0
 16 17  2  0
 16 18  1  0
 18 23  2  0
 18 19  1  0
 19 20  2  0
 20 21  1  0
 21 22  2  0
 21 24  1  0
 22 23  1  0
 24 25  2  0
 24 26  2  0
  1 27  1  0
  1 28  1  0
  1 29  1  0
  3 30  1  0
  3 31  1  0
  4 32  1  0
  4 33  1  0
  6 34  1  0
 11 35  1  0
 11 36  1  0
 14 37  1  0
 15 38  1  0
 19 39  1  0
 20 40  1  0
 22 41  1  0
 23 42  1  0
M  END
> <Name>
ZINC22207912

> <reference>
BDB50020383

> <quality>
0.642

> <status>
decoy

$$$$
ZINC26660329
  SciTegic06061311253D

 53 54  0  0  1  0            999 V2000
   -7.4776    0.0370   -3.8297 C   0  0
   -7.2519    0.8656   -2.5634 C   0  0
   -7.3400   -0.0440   -1.3363 C   0  0
   -7.2636    0.7708   -0.1164 N   0  0
   -6.0361    1.5776   -0.0981 C   0  0
   -4.8205    0.6542    0.0042 C   0  0  1  0  0  0
   -3.5420    1.4944    0.0232 C   0  0
   -2.4039    0.6306    0.0013 O   0  0
   -1.1820    1.2209    0.0144 C   0  0
   -0.0337    0.4377   -0.0056 C   0  0
    1.2079    1.0327    0.0022 C   0  0
    1.3127    2.4263    0.0357 C   0  0
    0.1554    3.2099    0.0611 C   0  0
   -1.0823    2.6069    0.0531 C   0  0
    2.6405    3.0679    0.0438 C   0  0
    3.6453    2.3851    0.0213 O   0  0
    2.7394    4.4113    0.0761 O   0  0
    4.0780    4.9738    0.0821 C   0  0
   -4.9045   -0.1125    1.2072 O   0  0
   -8.4539    1.6201    0.0248 C   0  0  2  0  0  0
   -8.4587    2.2809    1.4133 C   0  0
   -9.8445    2.9108    1.6932 C   0  0
  -10.9753    1.8590    0.6944 S   0  0
  -11.5895    2.6605   -0.3055 O   0  0
  -11.7877    1.0902    1.5708 O   0  0
   -9.7375    0.7509   -0.1023 C   0  0
   -8.4728   -0.4300   -3.7911 H   0  0
   -6.7082   -0.7461   -3.8987 H   0  0
   -7.4144    0.6904   -4.7124 H   0  0
   -6.2564    1.3319   -2.6028 H   0  0
   -8.0212    1.6488   -2.4943 H   0  0
   -8.2946   -0.5904   -1.3525 H   0  0
   -6.5064   -0.7616   -1.3498 H   0  0
   -5.9709    2.1674   -1.0243 H   0  0
   -6.0545    2.2556    0.7679 H   0  0
   -4.8011   -0.0236   -0.8619 H   0  0
   -3.5209    2.1502   -0.8597 H   0  0
   -3.5185    2.1076    0.9361 H   0  0
   -0.1171   -0.6589   -0.0277 H   0  0
    2.1161    0.4124   -0.0179 H   0  0
    0.2335    4.3068    0.0874 H   0  0
   -1.9935    3.2227    0.0774 H   0  0
    4.5787    4.5918   -0.8198 H   0  0
    4.5890    4.5483    0.9583 H   0  0
    4.0754    6.0735    0.1090 H   0  0
   -5.7314   -0.6567    1.1957 H   0  0
   -8.4342    2.3880   -0.7625 H   0  0
   -7.6878    3.0648    1.4489 H   0  0
   -8.2409    1.5226    2.1799 H   0  0
  -10.0993    2.8251    2.7599 H   0  0
   -9.8792    3.9478    1.3281 H   0  0
  -10.0001    0.5932   -1.1588 H   0  0
   -9.6399   -0.1796    0.4762 H   0  0
  1  2  1  0
  2  3  1  0
  3  4  1  0
  4  5  1  0
  4 20  1  0
  5  6  1  0
  6  7  1  0
  6 19  1  0
  7  8  1  0
  8  9  1  0
  9 14  2  0
  9 10  1  0
 10 11  2  0
 11 12  1  0
 12 13  2  0
 12 15  1  0
 13 14  1  0
 15 16  2  0
 15 17  1  0
 17 18  1  0
 20 26  1  0
 20 21  1  0
 21 22  1  0
 22 23  1  0
 23 24  2  0
 23 25  2  0
 23 26  1  0
  1 27  1  0
  1 28  1  0
  1 29  1  0
  2 30  1  0
  2 31  1  0
  3 32  1  0
  3 33  1  0
  5 34  1  0
  5 35  1  0
  6 36  1  0
  7 37  1  0
  7 38  1  0
 10 39  1  0
 11 40  1  0
 13 41  1  0
 14 42  1  0
 18 43  1  0
 18 44  1  0
 18 45  1  0
 19 46  1  0
 20 47  1  0
 21 48  1  0
 21 49  1  0
 22 50  1  0
 22 51  1  0
 26 52  1  0
 26 53  1  0
M  END
> <Name>
ZINC26660329

> <reference>
BDB50020383

> <quality>
0.642

> <status>
decoy

$$$$
ZINC20068247
  SciTegic06061311253D

 42 43  0  0  0  0            999 V2000
    2.9864    1.0512    0.0968 C   0  0
    1.5512    1.4943   -0.0250 C   0  0
    0.4557    0.6980   -0.0460 C   0  0
   -0.6222    1.6031   -0.1791 C   0  0
   -0.0991    2.7946   -0.2150 N   0  0
    1.1067    2.7542   -0.1338 O   0  0
   -2.0868    1.2573   -0.2598 C   0  0
   -2.2490   -0.1833   -0.1797 O   0  0
   -3.5027   -0.6595   -0.2374 C   0  0
   -4.4337    0.1023   -0.3511 O   0  0
   -3.7491   -2.1442   -0.1604 C   0  0
   -5.1881   -2.4055   -0.2447 N   0  0
   -5.7347   -3.9368   -0.5587 S   0  0
   -7.1541   -3.8711   -0.5506 O   0  0
   -5.0003   -4.4082   -1.6801 O   0  0
   -5.2695   -4.9465    0.8084 C   0  0
   -4.0533   -5.6048    0.7977 C   0  0
   -3.6832   -6.3923    1.8699 C   0  0
   -4.5391   -6.5319    2.9553 C   0  0
   -5.7622   -5.8739    2.9603 C   0  0
   -6.1237   -5.0832    1.8870 C   0  0
   -6.6770   -6.0194    4.1147 N   0  0
   -7.6973   -5.3565    4.1705 O   0  0
   -6.4094   -6.8019    5.0089 O   0  0
   -4.1701   -7.3319    4.0392 N   0  0
   -2.8306   -7.9229    4.0910 C   0  0
    3.3383    1.6292    0.9640 H   0  0
    3.4524    1.5186   -0.7832 H   0  0
    3.1617   -0.0318    0.1768 H   0  0
    0.4143   -0.3990    0.0242 H   0  0
   -2.6225    1.7331    0.5748 H   0  0
   -2.4982    1.6194   -1.2136 H   0  0
   -3.3620   -2.5323    0.7933 H   0  0
   -3.2366   -2.6448   -0.9951 H   0  0
   -5.8599   -1.6367   -0.1087 H   0  0
   -3.3800   -5.5010   -0.0659 H   0  0
   -2.7119   -6.9085    1.8646 H   0  0
   -7.0922   -4.5617    1.8904 H   0  0
   -4.8398   -7.5063    4.8021 H   0  0
   -2.1401   -7.0702    4.0122 H   0  0
   -2.7385   -8.5012    3.1598 H   0  0
   -2.6440   -8.5342    4.9862 H   0  0
  1  2  1  0
  2  6  1  0
  2  3  2  0
  3  4  1  0
  4  5  2  0
  4  7  1  0
  5  6  1  0
  7  8  1  0
  8  9  1  0
  9 10  2  0
  9 11  1  0
 11 12  1  0
 12 13  1  0
 13 14  2  0
 13 15  2  0
 13 16  1  0
 16 21  2  0
 16 17  1  0
 17 18  2  0
 18 19  1  0
 19 20  2  0
 19 25  1  0
 20 21  1  0
 20 22  1  0
 22 23  2  0
 22 24  2  0
 25 26  1  0
  1 27  1  0
  1 28  1  0
  1 29  1  0
  3 30  1  0
  7 31  1  0
  7 32  1  0
 11 33  1  0
 11 34  1  0
 12 35  1  0
 17 36  1  0
 18 37  1  0
 21 38  1  0
 25 39  1  0
 26 40  1  0
 26 41  1  0
 26 42  1  0
M  END
> <Name>
ZINC20068247

> <reference>
BDB50020383

> <quality>
0.638

> <status>
decoy

$$$$
ZINC24354683
  SciTegic06061311253D

 42 42  0  0  1  0            999 V2000
    4.0892   14.3745    1.6171 C   0  0
    4.0046   12.9024    1.2089 C   0  0
    3.7069   11.8832    2.6796 S   0  0
    3.6358   10.2386    2.0513 C   0  0
    3.7625    9.7949    0.8091 N   0  0
    3.6833    8.5680    0.5280 N   0  0
    3.4691    7.6486    1.4547 C   0  0
    3.3635    8.6898    2.9076 S   0  0
    3.3527    6.2660    1.3340 N   0  0
    3.4618    5.6837    0.1234 C   0  0
    3.6613    6.3638   -0.8609 O   0  0
    3.3359    4.1877   -0.0073 C   0  0  1  0  0  0
    1.8566    3.7973    0.0047 C   0  0
    1.7314    2.2725   -0.0023 C   0  0
   -0.0225    1.8097    0.0120 S   0  0
    0.0021   -0.0041    0.0020 C   0  0
    3.9450    3.7546   -1.2673 N   0  0
    5.5148    3.2277   -1.2901 S   0  0
    5.7739    2.9187   -2.6527 O   0  0
    6.2491    4.2472   -0.6262 O   0  0
    5.5120    1.7110   -0.2951 C   0  0
    6.9267    1.1304   -0.2463 C   0  0
    4.9153   14.5115    2.3304 H   0  0
    3.1437   14.6803    2.0888 H   0  0
    4.2697   14.9932    0.7257 H   0  0
    3.1781   12.7663    0.4958 H   0  0
    4.9501   12.5966    0.7371 H   0  0
    3.1832    5.6885    2.1699 H   0  0
    3.8502    3.7016    0.8348 H   0  0
    1.3784    4.1998    0.9099 H   0  0
    1.3603    4.2093   -0.8863 H   0  0
    2.2090    1.8694   -0.9075 H   0  0
    2.2262    1.8587    0.8887 H   0  0
    0.4833   -0.4175    0.9006 H   0  0
    0.4660   -0.4077   -0.9101 H   0  0
   -1.0443   -0.3432    0.0102 H   0  0
    3.3969    3.7778   -2.1390 H   0  0
    5.1760    1.9431    0.7263 H   0  0
    4.8301    0.9758   -0.7473 H   0  0
    7.6099    1.8639    0.2068 H   0  0
    7.2641    0.8976   -1.2671 H   0  0
    6.9257    0.2106    0.3570 H   0  0
  1  2  1  0
  2  3  1  0
  3  4  1  0
  4  8  1  0
  4  5  2  0
  5  6  1  0
  6  7  2  0
  7  8  1  0
  7  9  1  0
  9 10  1  0
 10 11  2  0
 10 12  1  0
 12 13  1  0
 12 17  1  0
 13 14  1  0
 14 15  1  0
 15 16  1  0
 17 18  1  0
 18 19  2  0
 18 20  2  0
 18 21  1  0
 21 22  1  0
  1 23  1  0
  1 24  1  0
  1 25  1  0
  2 26  1  0
  2 27  1  0
  9 28  1  0
 12 29  1  0
 13 30  1  0
 13 31  1  0
 14 32  1  0
 14 33  1  0
 16 34  1  0
 16 35  1  0
 16 36  1  0
 17 37  1  0
 21 38  1  0
 21 39  1  0
 22 40  1  0
 22 41  1  0
 22 42  1  0
M  END
> <Name>
ZINC24354683

> <reference>
BDB50020383

> <quality>
0.637

> <status>
decoy

$$$$
ZINC16329894
  SciTegic06061311253D

 56 56  0  0  1  0            999 V2000
   -8.4249   -0.9634   -2.8143 C   0  0
   -8.4883   -1.7819   -1.5232 C   0  0  2  0  0  0
   -9.7238   -2.6839   -1.5513 C   0  0
   -8.5745   -0.8362   -0.3235 C   0  0
   -7.2942   -2.6001   -1.4096 O   0  0
   -6.1128   -1.9554   -1.3715 C   0  0
   -6.0805   -0.7422   -1.4316 O   0  0
   -4.9660   -2.6556   -1.2668 N   0  0
   -4.9888   -4.1229   -1.1937 C   0  0
   -4.2074   -4.5670    0.0468 C   0  0
   -2.8024   -3.9616    0.0035 C   0  0
   -2.9025   -2.4345    0.0167 C   0  0  2  0  0  0
   -3.6692   -1.9663   -1.2241 C   0  0
   -1.5179   -1.8396    0.0067 C   0  0
   -0.5499   -2.5625   -0.0065 O   0  0
   -1.3601   -0.5067    0.0123 O   0  0
    0.0021   -0.0041    0.0020 C   0  0
   -0.0184    1.5028    0.0103 C   0  0
   -1.0764    2.0946    0.0185 O   0  0
    1.1395    2.1925    0.0030 N   0  0
    1.1213    3.5401    0.0104 C   0  0
    0.0606    4.1334    0.0237 O   0  0
    2.2792    4.2298    0.0030 N   0  0
    2.2593    5.6946    0.0111 C   0  0
    3.6947    6.2242    0.0002 C   0  0
    4.3269    5.8615   -1.2289 O   0  0
    5.6789    6.3104   -1.3417 C   0  0
   -9.3291   -0.3429   -2.9011 H   0  0
   -8.3627   -1.6424   -3.6775 H   0  0
   -7.5368   -0.3146   -2.7947 H   0  0
   -9.6627   -3.3644   -2.4134 H   0  0
  -10.6291   -2.0649   -1.6370 H   0  0
   -9.7700   -3.2727   -0.6233 H   0  0
   -9.4790   -0.2160   -0.4084 H   0  0
   -7.6865   -0.1874   -0.3022 H   0  0
   -8.6201   -1.4240    0.6051 H   0  0
   -6.0291   -4.4721   -1.1175 H   0  0
   -4.5194   -4.5452   -2.0944 H   0  0
   -4.1331   -5.6644    0.0618 H   0  0
   -4.7279   -4.2210    0.9520 H   0  0
   -2.2308   -4.2985    0.8809 H   0  0
   -2.2902   -4.2866   -0.9141 H   0  0
   -3.4336   -2.1079    0.9229 H   0  0
   -3.8299   -0.8795   -1.1684 H   0  0
   -3.0915   -2.2114   -2.1275 H   0  0
    0.5341   -0.3679    0.8934 H   0  0
    0.5179   -0.3580   -0.9028 H   0  0
    2.0384    1.6897   -0.0082 H   0  0
    3.1781    3.7270   -0.0084 H   0  0
    1.7449    6.0504    0.9159 H   0  0
    1.7278    6.0592   -0.8803 H   0  0
    3.6821    7.3199    0.0961 H   0  0
    4.2537    5.7889    0.8416 H   0  0
    6.2414    5.8839   -0.4980 H   0  0
    5.6743    7.4056   -1.2387 H   0  0
    6.1258    6.0100   -2.3009 H   0  0
  1  2  1  0
  2  3  1  0
  2  4  1  0
  2  5  1  0
  5  6  1  0
  6  7  2  0
  6  8  1  0
  8 13  1  0
  8  9  1  0
  9 10  1  0
 10 11  1  0
 11 12  1  0
 12 13  1  0
 12 14  1  0
 14 15  2  0
 14 16  1  0
 16 17  1  0
 17 18  1  0
 18 19  2  0
 18 20  1  0
 20 21  1  0
 21 22  2  0
 21 23  1  0
 23 24  1  0
 24 25  1  0
 25 26  1  0
 26 27  1  0
  1 28  1  0
  1 29  1  0
  1 30  1  0
  3 31  1  0
  3 32  1  0
  3 33  1  0
  4 34  1  0
  4 35  1  0
  4 36  1  0
  9 37  1  0
  9 38  1  0
 10 39  1  0
 10 40  1  0
 11 41  1  0
 11 42  1  0
 12 43  1  0
 13 44  1  0
 13 45  1  0
 17 46  1  0
 17 47  1  0
 20 48  1  0
 23 49  1  0
 24 50  1  0
 24 51  1  0
 25 52  1  0
 25 53  1  0
 27 54  1  0
 27 55  1  0
 27 56  1  0
M  END
> <Name>
ZINC16329894

> <reference>
BDB50020383

> <quality>
0.634

> <status>
decoy

$$$$
ZINC04941062
  SciTegic06061311253D

 50 51  0  0  0  0            999 V2000
   12.6998   -7.7774    5.5127 C   0  0
   11.3010   -8.3094    5.1948 C   0  0
   10.4156   -7.2122    4.9619 O   0  0
    9.0505   -7.5948    4.7828 C   0  0  2  0  0  0
    8.3579   -6.5944    3.8552 C   0  0
    8.4162   -5.2565    4.4491 N   0  0
    8.0870   -3.9241    3.5224 S   0  0
    8.9086   -4.0704    2.3723 O   0  0
    8.2595   -2.8202    4.4003 O   0  0
    6.3392   -4.0932    3.0672 C   0  0
    5.9206   -2.9041    2.2001 C   0  0
    4.5091   -3.0407    1.8325 N   0  0
    3.9187   -2.1029    1.0654 C   0  0
    4.5576   -1.1435    0.6785 O   0  0
    2.4965   -2.2405    0.6950 C   0  0
    1.7608   -3.3421    1.1386 C   0  0
    0.4334   -3.4687    0.7923 C   0  0
   -0.1778   -2.5041    0.0023 C   0  0
    0.5515   -1.4012   -0.4439 C   0  0
    1.8827   -1.2690   -0.0997 C   0  0
   -0.2706   -0.6103   -1.1942 O   0  0
   -1.6089   -1.0259   -0.8639 C   0  0
   -1.4531   -2.4016   -0.4694 O   0  0
    8.3890   -7.6067    6.0495 O   0  0
    8.7471   -8.7116    6.8818 C   0  0
    7.8643   -8.7159    8.1315 C   0  0
   12.6570   -7.1445    6.4114 H   0  0
   13.0689   -7.1831    4.6638 H   0  0
   13.3819   -8.6215    5.6921 H   0  0
   11.3447   -8.9418    4.2959 H   0  0
   10.9319   -8.9037    6.0437 H   0  0
    9.0068   -8.5994    4.3368 H   0  0
    7.3068   -6.8879    3.7169 H   0  0
    8.8673   -6.5847    2.8803 H   0  0
    8.6619   -5.1445    5.4431 H   0  0
    6.1958   -5.0264    2.5028 H   0  0
    5.7227   -4.1170    3.9779 H   0  0
    6.0634   -1.9706    2.7641 H   0  0
    6.5354   -2.8793    1.2883 H   0  0
    3.9679   -3.8534    2.1603 H   0  0
    2.2414   -4.1085    1.7644 H   0  0
   -0.1442   -4.3368    1.1428 H   0  0
    2.4587   -0.4001   -0.4508 H   0  0
   -2.2591   -0.9561   -1.7484 H   0  0
   -1.9952   -0.4312   -0.0230 H   0  0
    9.8022   -8.6211    7.1795 H   0  0
    8.6017   -9.6506    6.3276 H   0  0
    6.8088   -8.8075    7.8357 H   0  0
    8.0087   -7.7774    8.6869 H   0  0
    8.1395   -9.5663    8.7727 H   0  0
  1  2  1  0
  2  3  1  0
  3  4  1  0
  4  5  1  0
  4 24  1  0
  5  6  1  0
  6  7  1  0
  7  8  2  0
  7  9  2  0
  7 10  1  0
 10 11  1  0
 11 12  1  0
 12 13  1  0
 13 14  2  0
 13 15  1  0
 15 20  2  0
 15 16  1  0
 16 17  2  0
 17 18  1  0
 18 23  1  0
 18 19  2  0
 19 20  1  0
 19 21  1  0
 21 22  1  0
 22 23  1  0
 24 25  1  0
 25 26  1  0
  1 27  1  0
  1 28  1  0
  1 29  1  0
  2 30  1  0
  2 31  1  0
  4 32  1  0
  5 33  1  0
  5 34  1  0
  6 35  1  0
 10 36  1  0
 10 37  1  0
 11 38  1  0
 11 39  1  0
 12 40  1  0
 16 41  1  0
 17 42  1  0
 20 43  1  0
 22 44  1  0
 22 45  1  0
 25 46  1  0
 25 47  1  0
 26 48  1  0
 26 49  1  0
 26 50  1  0
M  END
> <Name>
ZINC04941062

> <reference>
BDB50020383

> <quality>
0.630

> <status>
decoy

$$$$
ZINC32062206
  SciTegic06061311253D

 46 48  0  0  0  0            999 V2000
   -5.9732   -3.3222    2.6809 C   0  0
   -5.2502   -2.0249    2.9361 C   0  0
   -5.5415   -1.3475    3.8987 O   0  0
   -4.2797   -1.6173    2.0943 N   0  0
   -3.5478   -0.4877    2.3828 C   0  0
   -2.5083   -0.1596    1.5737 N   0  0
   -1.7583    0.9602    1.8220 C   0  0
   -2.0729    1.7479    2.9235 C   0  0
   -3.2058    1.3429    3.7608 C   0  0
   -3.5272    2.0022    4.7369 O   0  0
   -3.8826    0.2309    3.4307 N   0  0
   -1.2018    2.7831    2.9422 N   0  0
   -0.3839    2.6715    1.9349 C   0  0
   -0.6927    1.5532    1.2178 N   0  0
   -0.0065    1.0801    0.0130 C   0  0
   -0.7335    1.5807   -1.2085 C   0  0
   -0.2049    2.2952   -2.2294 C   0  0
   -1.2191    2.5207   -3.0963 N   0  0
   -2.2841    1.9753   -2.6220 N   0  0
   -2.0267    1.4016   -1.4998 N   0  0
   -1.1217    3.2592   -4.3578 C   0  0
    0.2208    3.7133   -4.5416 O   0  0
    0.4252    4.4493   -5.7492 C   0  0
    1.8896    4.8829   -5.8406 C   0  0
    2.7356    3.7086   -5.9584 O   0  0
    4.0585    3.9173   -6.0493 C   0  0
    4.4951    5.0437   -6.0309 O   0  0
    4.9991    2.7465   -6.1742 C   0  0
   -7.0389   -3.0568    2.6186 H   0  0
   -5.8314   -3.9214    3.5924 H   0  0
   -5.6207   -3.8451    1.7796 H   0  0
   -4.0857   -2.1511    1.2350 H   0  0
   -4.6806   -0.0648    4.0109 H   0  0
    0.4309    3.3717    1.6987 H   0  0
    1.0259    1.4598    0.0059 H   0  0
    0.0072   -0.0198    0.0055 H   0  0
    0.8390    2.6260   -2.3334 H   0  0
   -1.4024    2.5992   -5.1918 H   0  0
   -1.8002    4.1246   -4.3307 H   0  0
   -0.2208    5.3396   -5.7511 H   0  0
    0.1769    3.8142   -6.6123 H   0  0
    2.0279    5.5239   -6.7238 H   0  0
    2.1647    5.4427   -4.9345 H   0  0
    4.6565    2.1960   -7.0628 H   0  0
    4.7905    2.1153   -5.2978 H   0  0
    6.0584    3.0352   -6.2414 H   0  0
  1  2  1  0
  2  3  2  0
  2  4  1  0
  4  5  1  0
  5 11  1  0
  5  6  2  0
  6  7  1  0
  7 14  1  0
  7  8  2  0
  8 12  1  0
  8  9  1  0
  9 11  1  0
  9 10  2  0
 12 13  2  0
 13 14  1  0
 14 15  1  0
 15 16  1  0
 16 20  1  0
 16 17  2  0
 17 18  1  0
 18 19  1  0
 18 21  1  0
 19 20  2  0
 21 22  1  0
 22 23  1  0
 23 24  1  0
 24 25  1  0
 25 26  1  0
 26 27  2  0
 26 28  1  0
  1 29  1  0
  1 30  1  0
  1 31  1  0
  4 32  1  0
 11 33  1  0
 13 34  1  0
 15 35  1  0
 15 36  1  0
 17 37  1  0
 21 38  1  0
 21 39  1  0
 23 40  1  0
 23 41  1  0
 24 42  1  0
 24 43  1  0
 28 44  1  0
 28 45  1  0
 28 46  1  0
M  END
> <Name>
ZINC32062206

> <reference>
BDB50020383

> <quality>
0.628

> <status>
decoy

$$$$
ZINC07348331
  SciTegic06061311253D

 48 49  0  0  0  0            999 V2000
   -0.1384    1.1366   -4.8622 C   0  0
   -0.7253    1.5427   -3.6242 O   0  0
   -0.0257    1.0763   -2.4687 C   0  0
   -0.7389    1.5682   -1.2077 C   0  0
    0.0100    1.0688    0.0295 C   0  0
   -0.6729    1.5398    1.2370 N   0  0
   -1.6535    0.8887    1.8937 C   0  0
   -2.1283   -0.1916    1.5908 O   0  0
   -2.0138    1.6505    2.9472 N   0  0
   -1.2182    2.8043    2.9220 N   0  0
   -0.4186    2.7202    1.8980 C   0  0
    0.7857    3.9195    1.4334 S   0  0
    0.5311    5.1439    2.7418 C   0  0
    1.4818    6.2962    2.5434 C   0  0
    2.2554    6.2903    1.6092 O   0  0
    1.4725    7.3334    3.4040 N   0  0
    2.4318    8.3481    3.2887 C   0  0
    3.6529    8.0845    2.6858 C   0  0
    4.5980    9.0917    2.5684 C   0  0
    4.3275   10.3593    3.0627 C   0  0
    3.1136   10.6229    3.6691 C   0  0
    2.1634    9.6216    3.7844 C   0  0
    0.9687    9.8821    4.3809 O   0  0
    0.7618   11.2102    4.8661 C   0  0
    5.7934    8.8356    1.9729 O   0  0
    6.7225    9.9182    1.8909 C   0  0
   -0.1068    0.0371   -4.8693 H   0  0
    0.8945    1.5145   -4.8792 H   0  0
   -0.7077    1.5167   -5.7233 H   0  0
   -0.0044   -0.0235   -2.4718 H   0  0
    1.0040    1.4631   -2.4811 H   0  0
   -0.7601    2.6680   -1.2037 H   0  0
   -1.7686    1.1815   -1.1930 H   0  0
    0.0313   -0.0310    0.0263 H   0  0
    1.0397    1.4555    0.0171 H   0  0
   -2.7399    1.4257    3.6422 H   0  0
    0.7182    4.6797    3.7213 H   0  0
   -0.5045    5.5127    2.7025 H   0  0
    0.7602    7.3801    4.1465 H   0  0
    3.8710    7.0773    2.3013 H   0  0
    5.0804   11.1561    2.9719 H   0  0
    2.9019   11.6289    4.0605 H   0  0
    0.8941   11.8789    4.0028 H   0  0
    1.5776   11.4106    5.5762 H   0  0
   -0.2247   11.3433    5.3342 H   0  0
    6.8925   10.2586    2.9230 H   0  0
    6.2088   10.7262    1.3494 H   0  0
    7.6639    9.6346    1.3976 H   0  0
  1  2  1  0
  2  3  1  0
  3  4  1  0
  4  5  1  0
  5  6  1  0
  6 11  1  0
  6  7  1  0
  7  8  2  0
  7  9  1  0
  9 10  1  0
 10 11  2  0
 11 12  1  0
 12 13  1  0
 13 14  1  0
 14 15  2  0
 14 16  1  0
 16 17  1  0
 17 22  2  0
 17 18  1  0
 18 19  2  0
 19 20  1  0
 19 25  1  0
 20 21  2  0
 21 22  1  0
 22 23  1  0
 23 24  1  0
 25 26  1  0
  1 27  1  0
  1 28  1  0
  1 29  1  0
  3 30  1  0
  3 31  1  0
  4 32  1  0
  4 33  1  0
  5 34  1  0
  5 35  1  0
  9 36  1  0
 13 37  1  0
 13 38  1  0
 16 39  1  0
 18 40  1  0
 20 41  1  0
 21 42  1  0
 24 43  1  0
 24 44  1  0
 24 45  1  0
 26 46  1  0
 26 47  1  0
 26 48  1  0
M  END
> <Name>
ZINC07348331

> <reference>
BDB50020383

> <quality>
0.627

> <status>
decoy

$$$$
ZINC25269282
  SciTegic06061311253D

 51 52  0  0  1  0            999 V2000
   -4.3733    4.8999   15.0540 C   0  0
   -4.4490    4.3688   13.6212 C   0  0
   -5.6560    4.8862   12.9717 N   0  0
   -6.9356    4.1946   13.1463 C   0  0
   -7.0474    3.0629   12.1228 C   0  0
   -5.5738    6.2529   12.0402 S   0  0
   -4.4396    6.9823   12.4884 O   0  0
   -6.8803    6.8114   12.0223 O   0  0
   -5.2230    5.7395   10.3916 C   0  0
   -3.9518    5.5718    9.8344 C   0  0
   -4.1350    5.1664    8.5281 C   0  0
   -5.4916    5.0828    8.3075 N   0  0
   -6.1372    5.4314    9.4403 C   0  0
   -3.0793    4.8727    7.5559 C   0  0
   -1.9109    4.9845    7.8746 O   0  0
   -3.4031    4.4781    6.3073 O   0  0
   -2.3054    4.2041    5.3971 C   0  0
   -2.8557    3.7795    4.0600 C   0  0
   -4.0549    3.7141    3.8908 O   0  0
   -2.0152    3.4723    3.0521 N   0  0
   -2.5502    3.0595    1.7523 C   0  0
   -1.3936    2.7709    0.7932 C   0  0  2  0  0  0
   -1.9281    2.4530   -0.6265 C   0  0
   -0.7781    1.6063   -1.2241 C   0  0
   -0.0127    1.0858    0.0080 C   0  0
   -0.7045    1.5588    1.1759 O   0  0
   -5.2604    4.5713   15.6153 H   0  0
   -4.3372    5.9992   15.0372 H   0  0
   -3.4672    4.5118   15.5423 H   0  0
   -3.5617    4.6981   13.0606 H   0  0
   -4.4850    3.2695   13.6379 H   0  0
   -6.9909    3.7763   14.1622 H   0  0
   -7.7614    4.9058   12.9971 H   0  0
   -6.2229    2.3501   12.2713 H   0  0
   -6.9924    3.4797   11.1063 H   0  0
   -8.0080    2.5431   12.2533 H   0  0
   -2.9887    5.7325   10.3410 H   0  0
   -5.9396    4.8008    7.4240 H   0  0
   -7.2291    5.4606    9.5702 H   0  0
   -1.6795    3.3982    5.8078 H   0  0
   -1.6978    5.1124    5.2712 H   0  0
   -0.9968    3.5278    3.1958 H   0  0
   -3.1757    3.8647    1.3395 H   0  0
   -3.1575    2.1509    1.8774 H   0  0
   -0.7451    3.6590    0.8186 H   0  0
   -2.0591    3.3803   -1.2035 H   0  0
   -2.8495    1.8555   -0.5634 H   0  0
   -0.1203    2.2392   -1.8380 H   0  0
   -1.1883    0.7626   -1.7986 H   0  0
   -0.0030   -0.0141    0.0015 H   0  0
    1.0150    1.4778    0.0005 H   0  0
  1  2  1  0
  2  3  1  0
  3  4  1  0
  3  6  1  0
  4  5  1  0
  6  7  2  0
  6  8  2  0
  6  9  1  0
  9 13  2  0
  9 10  1  0
 10 11  2  0
 11 12  1  0
 11 14  1  0
 12 13  1  0
 14 15  2  0
 14 16  1  0
 16 17  1  0
 17 18  1  0
 18 19  2  0
 18 20  1  0
 20 21  1  0
 21 22  1  0
 22 26  1  0
 22 23  1  0
 23 24  1  0
 24 25  1  0
 25 26  1  0
  1 27  1  0
  1 28  1  0
  1 29  1  0
  2 30  1  0
  2 31  1  0
  4 32  1  0
  4 33  1  0
  5 34  1  0
  5 35  1  0
  5 36  1  0
 10 37  1  0
 12 38  1  0
 13 39  1  0
 17 40  1  0
 17 41  1  0
 20 42  1  0
 21 43  1  0
 21 44  1  0
 22 45  1  0
 23 46  1  0
 23 47  1  0
 24 48  1  0
 24 49  1  0
 25 50  1  0
 25 51  1  0
M  END
> <Name>
ZINC25269282

> <reference>
BDB50020383

> <quality>
0.626

> <status>
decoy

$$$$
ZINC04984152
  SciTegic06061311253D

 16 15  0  0  0  0            999 V2000
    1.3618    1.5631   -0.0127 C   0  0
    2.4350    1.9355   -0.0222 N   0  0
   -0.0288    1.0805   -0.0004 C   0  5
   -0.7362    1.5921   -1.1855 C   0  0
   -1.2822    1.9870   -2.1000 N   0  0
   -0.7191    1.5694    1.2468 C   0  0
   -1.2298    0.6743    2.1382 C   0  0
   -1.7532    1.1046    3.2949 N   0  0
   -2.1440    0.2354    4.2049 C   0  0
   -1.8973   -1.1621    4.0129 C   0  0
   -1.7016   -2.2707    3.8606 N   0  0
   -2.8155    0.6883    5.3859 C   0  0
   -3.3482    1.0475    6.3227 N   0  0
   -1.2087   -0.6468    1.8562 F   0  0
   -0.8384    2.9746    1.4951 C   0  0
   -0.9330    4.0894    1.6920 N   0  0
  1  2  3  0
  1  3  1  0
  3  4  1  0
  3  6  1  0
  4  5  3  0
  6  7  2  0
  6 15  1  0
  7  8  1  0
  7 14  1  0
  8  9  2  0
  9 10  1  0
  9 12  1  0
 10 11  3  0
 12 13  3  0
 15 16  3  0
M  CHG  1   3  -1
M  END
> <Name>
ZINC04984152

> <reference>
BDB50071320

> <quality>
0.867

> <status>
decoy

$$$$
ZINC04189336
  SciTegic06061311253D

 30 31  0  0  0  0            999 V2000
    1.2382    2.4014    0.0031 C   0  0
   -0.0204    1.6518    0.0111 N   0  0
   -1.2989    2.3669    0.0211 C   0  0
    0.0021   -0.0041    0.0020 S   0  0
   -1.2429   -0.4241   -0.5392 O   0  0
    1.2475   -0.3902   -0.5628 O   0  0
    0.0238   -0.5021    1.5812 N   0  0
   -1.0684   -0.2396    2.4114 C   0  0
   -0.8682    0.2355    3.6937 C   0  0
   -2.0004    0.4895    4.4884 C   0  0
   -1.8767    0.9776    5.7999 C   0  0
   -2.9954    1.2058    6.5412 C   0  0
   -4.2630    0.9621    6.0158 C   0  0
   -4.4197    0.4893    4.7496 C   0  0
   -3.2885    0.2404    3.9521 C   0  0
   -3.4162   -0.2248    2.7056 N   0  0
   -2.3719   -0.4617    1.9513 C   0  0
    1.1842    3.0523    0.8882 H   0  0
    1.1716    3.0545   -0.8795 H   0  0
    2.1405    1.7723   -0.0041 H   0  0
   -1.2627    3.0214   -0.8623 H   0  0
   -1.2501    3.0192    0.9055 H   0  0
   -2.1838    1.7135    0.0266 H   0  0
    0.8427   -1.0054    1.9513 H   0  0
    0.1464    0.4098    4.0812 H   0  0
   -0.8816    1.1743    6.2254 H   0  0
   -2.8976    1.5875    7.5682 H   0  0
   -5.1515    1.1552    6.6350 H   0  0
   -5.4278    0.3024    4.3511 H   0  0
   -2.5228   -0.8446    0.9312 H   0  0
  1  2  1  0
  2  3  1  0
  2  4  1  0
  4  5  2  0
  4  6  2  0
  4  7  1  0
  7  8  1  0
  8 17  2  0
  8  9  1  0
  9 10  2  0
 10 15  1  0
 10 11  1  0
 11 12  2  0
 12 13  1  0
 13 14  2  0
 14 15  1  0
 15 16  2  0
 16 17  1  0
  1 18  1  0
  1 19  1  0
  1 20  1  0
  3 21  1  0
  3 22  1  0
  3 23  1  0
  7 24  1  0
  9 25  1  0
 11 26  1  0
 12 27  1  0
 13 28  1  0
 14 29  1  0
 17 30  1  0
M  END
> <Name>
ZINC04189336

> <reference>
BDB50071320

> <quality>
0.851

> <status>
decoy

$$$$
ZINC16925273
  SciTegic06061311253D

 31 32  0  0  1  0            999 V2000
    5.4122    4.6497   -1.7287 C   0  0
    4.4860    4.4132   -0.5341 C   0  0  2  0  0  0
    3.8165    3.1215   -0.6747 O   0  0
    2.6155    3.4884   -1.3026 C   0  0  1  0  0  0
    1.3026    2.7568   -1.2449 C   0  0  2  0  0  0
    0.2842    3.7912   -1.1723 O   0  0
    0.9341    5.0890   -1.0301 C   0  0  2  0  0  0
    2.2580    4.7353   -0.3969 C   0  0  2  0  0  0
    3.4578    5.4450   -0.4948 O   0  0
    0.1752    5.9433   -0.1720 O   0  0
   -1.0959    6.3212   -0.7045 C   0  0
    1.2455    1.8695    0.0002 C   0  0
   -0.0132    1.1198    0.0082 N   0  0
    0.0021   -0.0041    0.0020 N   0  3
    0.0173   -1.1279   -0.0042 N   0  5
    5.2966    4.4396    0.7632 C   0  0
    5.8876    5.6369   -1.6322 H   0  0
    4.8248    4.6169   -2.6582 H   0  0
    6.1872    3.8696   -1.7559 H   0  0
    2.8620    3.4475   -2.3738 H   0  0
    1.1599    2.1030   -2.1179 H   0  0
    1.0369    5.6318   -1.9813 H   0  0
    2.0472    4.7820    0.6817 H   0  0
   -1.6614    5.3981   -0.8995 H   0  0
   -0.9160    6.8282   -1.6640 H   0  0
   -1.6450    6.9771   -0.0129 H   0  0
    1.3035    2.4969    0.9019 H   0  0
    2.0908    1.1657   -0.0119 H   0  0
    5.7864    5.4190    0.8678 H   0  0
    6.0622    3.6504    0.7314 H   0  0
    4.6286    4.2694    1.6204 H   0  0
  1  2  1  0
  2  9  1  0
  2  3  1  0
  2 16  1  0
  3  4  1  0
  4  8  1  0
  4  5  1  0
  5  6  1  0
  5 12  1  0
  6  7  1  0
  7  8  1  0
  7 10  1  0
  8  9  1  0
 10 11  1  0
 12 13  1  0
 13 14  2  0
 14 15  2  0
  1 17  1  0
  1 18  1  0
  1 19  1  0
  4 20  1  0
  5 21  1  0
  7 22  1  0
  8 23  1  0
 11 24  1  0
 11 25  1  0
 11 26  1  0
 12 27  1  0
 12 28  1  0
 16 29  1  0
 16 30  1  0
 16 31  1  0
M  CHG  2  14   1  15  -1
M  END
> <Name>
ZINC16925273

> <reference>
BDB50071320

> <quality>
0.832

> <status>
decoy

$$$$
ZINC31960859
  SciTegic06061311253D

 34 34  0  0  1  0            999 V2000
   -3.6057    3.4740    0.1172 C   0  0
   -2.3605    3.9671    0.7207 N   0  0
   -2.2837    3.6023    2.1417 C   0  0
   -1.1880    3.4734   -0.0137 C   0  0  2  0  0  0
   -1.1627    2.0069    0.0185 N   0  0
   -0.0166    1.3758    0.0096 C   0  0
    1.1453    2.0574    0.0022 N   0  0
    1.1711    3.3437    0.2785 C   0  0
    0.0258    3.9792    0.6088 O   0  0
    2.3487    4.0319    0.2321 N   0  0
    3.5886    3.3386   -0.1261 C   0  0
    2.3730    5.4638    0.5405 C   0  0
    0.0021   -0.0041    0.0020 N   0  0
   -1.2565   -0.7538    0.0100 C   0  0
    1.2806   -0.7192   -0.0140 C   0  0
   -4.4593    3.9119    0.6554 H   0  0
   -3.6402    2.3791    0.2176 H   0  0
   -3.6495    3.7542   -0.9456 H   0  0
   -2.3259    2.5067    2.2302 H   0  0
   -3.1451    4.0394    2.6680 H   0  0
   -1.3472    3.9776    2.5800 H   0  0
   -1.2466    3.8200   -1.0560 H   0  0
    3.3902    2.8876   -1.1096 H   0  0
    3.6752    2.5151    0.5980 H   0  0
    4.4771    3.9871   -0.1329 H   0  0
    1.9412    5.5464    1.5488 H   0  0
    1.6561    5.9190   -0.1587 H   0  0
    3.3723    5.9185    0.4729 H   0  0
   -1.8106   -0.3903   -0.8680 H   0  0
   -1.7937   -0.3998    0.9023 H   0  0
   -1.1271   -1.8461    0.0029 H   0  0
    1.8248   -0.3505    0.8680 H   0  0
    1.8079   -0.3410   -0.9022 H   0  0
    1.1809   -1.8147   -0.0189 H   0  0
  1  2  1  0
  2  3  1  0
  2  4  1  0
  4  9  1  0
  4  5  1  0
  5  6  2  0
  6  7  1  0
  6 13  1  0
  7  8  2  0
  8  9  1  0
  8 10  1  0
 10 11  1  0
 10 12  1  0
 13 14  1  0
 13 15  1  0
  1 16  1  0
  1 17  1  0
  1 18  1  0
  3 19  1  0
  3 20  1  0
  3 21  1  0
  4 22  1  0
 11 23  1  0
 11 24  1  0
 11 25  1  0
 12 26  1  0
 12 27  1  0
 12 28  1  0
 14 29  1  0
 14 30  1  0
 14 31  1  0
 15 32  1  0
 15 33  1  0
 15 34  1  0
M  END
> <Name>
ZINC31960859

> <reference>
BDB50071320

> <quality>
0.828

> <status>
decoy

$$$$
ZINC01716686
  SciTegic06061311253D

 33 33  0  0  0  0            999 V2000
    1.4227    1.6154   -0.0028 C   0  0
   -0.0127    1.0858    0.0080 C   0  0  2  0  0  0
   -0.7527    1.5927   -1.2315 C   0  0
   -0.7288    1.5792    1.2668 C   0  0
   -2.1214    0.9498    1.3412 C   0  0
   -2.8375    1.4432    2.6000 C   0  5
   -1.9927    1.0660    3.8022 C   0  0
   -0.8475    1.4488    3.9108 O   0  0
   -2.5633    0.2880    4.7463 N   0  0
   -3.8256   -0.1427    4.6413 C   0  0
   -4.2594   -0.8388    5.5376 O   0  0
   -4.6450    0.1368    3.6213 N   0  0
   -4.2545    0.9018    2.5798 C   0  0
   -5.0083    1.1473    1.6627 O   0  0
   -6.0068   -0.4031    3.6352 C   0  0
   -1.7770   -0.0955    5.9215 C   0  0
    1.4089    2.7153    0.0036 H   0  0
    1.9386    1.2610   -0.9074 H   0  0
    1.9553    1.2513    0.8881 H   0  0
    0.0022   -0.0141    0.0019 H   0  0
   -0.2387    1.2383   -2.1372 H   0  0
   -0.7684    2.6926   -1.2262 H   0  0
   -1.7848    1.2123   -1.2244 H   0  0
   -0.1487    1.2907    2.1557 H   0  0
   -0.8238    2.6745    1.2305 H   0  0
   -2.0284   -0.1456    1.3787 H   0  0
   -2.7022    1.2383    0.4527 H   0  0
   -6.4566   -0.0440    4.5726 H   0  0
   -5.8906   -1.4936    3.7207 H   0  0
   -6.6000   -0.1170    2.7542 H   0  0
   -1.4489    0.8503    6.3775 H   0  0
   -0.8826   -0.5988    5.5257 H   0  0
   -2.3297   -0.7287    6.6311 H   0  0
  1  2  1  0
  2  3  1  0
  2  4  1  0
  4  5  1  0
  5  6  1  0
  6 13  1  0
  6  7  1  0
  7  8  2  0
  7  9  1  0
  9 10  1  0
  9 16  1  0
 10 11  2  0
 10 12  1  0
 12 13  1  0
 12 15  1  0
 13 14  2  0
  1 17  1  0
  1 18  1  0
  1 19  1  0
  2 20  1  0
  3 21  1  0
  3 22  1  0
  3 23  1  0
  4 24  1  0
  4 25  1  0
  5 26  1  0
  5 27  1  0
 15 28  1  0
 15 29  1  0
 15 30  1  0
 16 31  1  0
 16 32  1  0
 16 33  1  0
M  CHG  1   6  -1
M  END
> <Name>
ZINC01716686

> <reference>
BDB50071320

> <quality>
0.815

> <status>
decoy

$$$$
ZINC01395791
  SciTegic06061311253D

 30 31  0  0  0  0            999 V2000
   -5.9493   -1.2787    0.3650 C   0  0
   -5.7935   -2.7353    0.3554 N   0  0
   -6.9712   -3.5988    0.4724 C   0  0
   -4.5488   -3.2890    0.2373 C   0  0
   -3.4640   -2.4937    0.1295 C   0  0
   -2.1752   -3.0671    0.0072 C   0  0
   -2.0529   -4.2758   -0.0955 O   0  0
   -0.9838   -2.2045    0.0041 C   0  0
   -1.1142   -0.8157    0.0047 C   0  0
   -0.0174   -0.0759    0.0022 N   0  0
    1.1900   -0.6116   -0.0007 C   0  0
    1.4142   -1.9540   -0.0014 N   0  0
    0.3114   -2.7691    0.0010 C   0  0
    0.4485   -3.9798    0.0009 O   0  0
    2.7971   -2.4289   -0.0052 C   0  0
    3.8519   -1.3132   -0.0079 C   0  0
    2.7869    0.1760   -0.0043 S   0  0
   -6.4792   -1.0581    1.3034 H   0  0
   -6.6492   -1.0647   -0.4562 H   0  0
   -5.0056   -0.7212    0.2718 H   0  0
   -7.6297   -3.2908   -0.3532 H   0  0
   -7.4597   -3.2842    1.4064 H   0  0
   -6.7473   -4.6756    0.4548 H   0  0
   -4.4318   -4.3827    0.2302 H   0  0
   -3.5810   -1.4000    0.1366 H   0  0
   -2.1085   -0.3453    0.0072 H   0  0
    2.9504   -3.0625   -0.8912 H   0  0
    2.9543   -3.0623    0.8803 H   0  0
    4.4510   -1.3431   -0.9300 H   0  0
    4.4557   -1.3445    0.9110 H   0  0
  1  2  1  0
  2  3  1  0
  2  4  1  0
  4  5  2  0
  5  6  1  0
  6  7  2  0
  6  8  1  0
  8 13  1  0
  8  9  2  0
  9 10  1  0
 10 11  2  0
 11 17  1  0
 11 12  1  0
 12 13  1  0
 12 15  1  0
 13 14  2  0
 15 16  1  0
 16 17  1  0
  1 18  1  0
  1 19  1  0
  1 20  1  0
  3 21  1  0
  3 22  1  0
  3 23  1  0
  4 24  1  0
  5 25  1  0
  9 26  1  0
 15 27  1  0
 15 28  1  0
 16 29  1  0
 16 30  1  0
M  END
> <Name>
ZINC01395791

> <reference>
BDB50071320

> <quality>
0.814

> <status>
decoy

$$$$
ZINC16981592
  SciTegic06061311253D

 22 21  0  0  0  0            999 V2000
   -4.7020   -2.8801   -0.5189 C   0  0
   -3.4337   -2.2090   -0.2967 O   0  0
   -3.4476   -0.8631   -0.2891 C   0  0
   -4.4906   -0.2654   -0.4634 O   0  0
   -2.3041   -0.1786   -0.0881 N   0  5
   -2.3182    1.1938   -0.0804 C   0  0
   -1.1820    1.8667    0.0083 N   0  0
   -0.0138    1.2133   -0.0106 C   0  0
    0.6663    1.2112   -1.0203 O   0  0
    0.4126    0.5615    1.0915 O   0  0
    1.6712   -0.1094    1.0022 C   0  0
   -3.8489    2.0597   -0.1884 S   0  0
   -3.2491    3.7665   -0.1330 C   0  0
   -5.0821   -2.5129   -1.4836 H   0  0
   -5.3824   -2.5259    0.2695 H   0  0
   -4.6085   -3.9761   -0.5110 H   0  0
    2.4101    0.6550    0.7200 H   0  0
    1.5846   -0.8200    0.1670 H   0  0
    1.9500   -0.6162    1.9379 H   0  0
   -2.6307    4.0509   -0.9972 H   0  0
   -2.7653    4.0393    0.8165 H   0  0
   -4.1473    4.3985   -0.1956 H   0  0
  1  2  1  0
  2  3  1  0
  3  4  2  0
  3  5  1  0
  5  6  1  0
  6  7  2  0
  6 12  1  0
  7  8  1  0
  8  9  2  0
  8 10  1  0
 10 11  1  0
 12 13  1  0
  1 14  1  0
  1 15  1  0
  1 16  1  0
 11 17  1  0
 11 18  1  0
 11 19  1  0
 13 20  1  0
 13 21  1  0
 13 22  1  0
M  CHG  1   5  -1
M  END
> <Name>
ZINC16981592

> <reference>
BDB50071320

> <quality>
0.794

> <status>
decoy

$$$$
ZINC02344001
  SciTegic06061311253D

 15 15  0  0  1  0            999 V2000
    2.4020   -0.5670   -0.0239 C   0  0
    2.6665    1.2276   -0.0168 S   0  0
    1.0374    1.8986    0.0023 C   0  0
   -0.0126    1.0758    0.0080 C   0  0
   -1.4443    2.1362    0.0195 S   0  0
   -2.1039    1.9084   -1.2184 O   0  0
   -2.0934    1.8957    1.2605 O   0  0
   -0.5989    3.7675    0.0271 C   0  5
    0.8573    3.3345    0.0113 C   0  0
    1.7825    4.1190    0.0063 O   0  0
   -1.0493    4.8000   -1.5842 Br  0  0
    1.8696   -0.9035   -0.9257 H   0  0
    1.8869   -0.9132    0.8843 H   0  0
    3.3936   -1.0429   -0.0359 H   0  0
    0.0023   -0.0241    0.0060 H   0  0
  1  2  1  0
  2  3  1  0
  3  9  1  0
  3  4  2  0
  4  5  1  0
  5  6  2  0
  5  7  2  0
  5  8  1  0
  8  9  1  0
  8 11  1  0
  9 10  2  0
  1 12  1  0
  1 13  1  0
  1 14  1  0
  4 15  1  0
M  CHG  1   8  -1
M  END
> <Name>
ZINC02344001

> <reference>
BDB50071320

> <quality>
0.788

> <status>
decoy

$$$$
ZINC05290152
  SciTegic06061311253D

 35 37  0  0  1  0            999 V2000
    7.9543    4.9919   -1.5068 C   0  0
    8.4652    3.6157   -1.0649 C   0  0
    7.8867    2.5736   -2.0028 C   0  0
    6.3688    2.6553   -2.0455 C   0  0  2  0  0  0
    5.6793    3.9519   -1.6507 C   0  0  2  0  0  0
    6.4877    5.1223   -1.0951 C   0  0
    5.5762    2.7140   -0.7463 C   0  0  1  0  0  0
    4.2547    1.9909   -0.7031 C   0  0
    3.8593    1.3916   -1.6802 O   0  0
    3.5174    2.0102    0.4141 O   0  0
    2.4591    1.4078    0.3886 N   0  0
    2.4642    0.0032    0.7872 C   0  0
    1.0408   -0.4571    1.0089 C   0  0
    0.7442   -1.1555    1.9483 O   0  0
    0.0021   -0.0041    0.0020 C   0  0
   -0.0187    1.5271    0.0104 C   0  0
    1.3774    2.0714    0.0000 C   0  0
    1.5311    3.2085   -0.3949 O   0  0
    8.5472    5.7790   -1.0179 H   0  0
    8.0403    5.0832   -2.5996 H   0  0
    9.5636    3.5935   -1.1204 H   0  0
    8.1350    3.4103   -0.0359 H   0  0
    8.2863    2.7351   -3.0148 H   0  0
    8.1854    1.5715   -1.6613 H   0  0
    6.3499    2.0044   -2.9321 H   0  0
    4.9865    4.6267   -2.1749 H   0  0
    6.0798    6.0655   -1.4875 H   0  0
    6.4156    5.1265    0.0025 H   0  0
    5.7927    2.4991    0.3106 H   0  0
    2.9259   -0.6023   -0.0066 H   0  0
    3.0364   -0.1131    1.7195 H   0  0
   -0.9874   -0.3892    0.2893 H   0  0
    0.2749   -0.3652   -1.0006 H   0  0
   -0.5564    1.8890   -0.8784 H   0  0
   -0.5395    1.8804    0.9126 H   0  0
  1  6  1  0
  1  2  1  0
  2  3  1  0
  3  4  1  0
  4  7  1  0
  4  5  1  0
  5  6  1  0
  5  7  1  0
  7  8  1  0
  8  9  2  0
  8 10  1  0
 10 11  1  0
 11 17  1  0
 11 12  1  0
 12 13  1  0
 13 14  2  0
 13 15  1  0
 15 16  1  0
 16 17  1  0
 17 18  2  0
  1 19  1  0
  1 20  1  0
  2 21  1  0
  2 22  1  0
  3 23  1  0
  3 24  1  0
  4 25  1  0
  5 26  1  0
  6 27  1  0
  6 28  1  0
  7 29  1  0
 12 30  1  0
 12 31  1  0
 15 32  1  0
 15 33  1  0
 16 34  1  0
 16 35  1  0
M  END
> <Name>
ZINC05290152

> <reference>
BDB50071320

> <quality>
0.786

> <status>
decoy

$$$$
ZINC05368731
  SciTegic06061311253D

 26 27  0  0  0  0            999 V2000
    1.9026    4.0856   -0.9391 C   0  0
    1.5507    5.4924   -0.4179 C   0  0
    0.9682    5.2467    0.8948 O   0  0
    0.9557    3.9309    1.1381 C   0  0
    0.5168    3.4503    2.1643 O   0  0
    1.4754    3.1920    0.1483 N   0  0
    1.5881    1.7955    0.1470 N   0  0
    0.5175    1.0565    0.1149 C   0  0
   -0.8037    1.6836    0.0934 C   0  0
   -1.8741    0.9489    0.1804 N   0  0
   -1.7616   -0.4443    0.2764 N   0  0
   -2.1926   -1.4098   -0.7462 C   0  0
   -1.8389   -2.7778   -0.1316 C   0  0
   -1.2519   -2.4435    1.1593 O   0  0
   -1.2384   -1.1142    1.3124 C   0  0
   -0.7960   -0.5650    2.3020 O   0  0
    1.3349    3.8698   -1.8562 H   0  0
    2.9880    4.0018   -1.0970 H   0  0
    2.4634    6.0988   -0.3214 H   0  0
    0.8109    5.9672   -1.0791 H   0  0
    0.6061   -0.0399    0.1039 H   0  0
   -0.8924    2.7763    0.0037 H   0  0
   -1.6281   -1.2571   -1.6779 H   0  0
   -3.2785   -1.3367   -0.9057 H   0  0
   -2.7512   -3.3760    0.0091 H   0  0
   -1.1014   -3.2967   -0.7615 H   0  0
  1  6  1  0
  1  2  1  0
  2  3  1  0
  3  4  1  0
  4  5  2  0
  4  6  1  0
  6  7  1  0
  7  8  2  0
  8  9  1  0
  9 10  2  0
 10 11  1  0
 11 15  1  0
 11 12  1  0
 12 13  1  0
 13 14  1  0
 14 15  1  0
 15 16  2  0
  1 17  1  0
  1 18  1  0
  2 19  1  0
  2 20  1  0
  8 21  1  0
  9 22  1  0
 12 23  1  0
 12 24  1  0
 13 25  1  0
 13 26  1  0
M  END
> <Name>
ZINC05368731

> <reference>
BDB50071320

> <quality>
0.784

> <status>
decoy

$$$$
ZINC21927568
  SciTegic06061311253D

 26 27  0  0  0  0            999 V2000
    4.6203    3.5424   -1.2211 C   0  0
    3.4769    3.0698   -0.4365 N   0  0
    2.2834    2.6177   -0.9315 C   0  0
    1.5223    2.2862    0.1289 C   0  0
    2.2298    2.5339    1.2411 N   0  0
    3.4035    2.9987    0.9100 C   0  0
   -0.1182    1.6463    0.0663 S   0  0
   -0.6692    2.0620   -1.1758 O   0  0
   -0.7247    1.9611    1.3122 O   0  0
    0.0021   -0.0041    0.0020 N   0  5
    0.6270   -0.7006    1.0412 C   0  0
    0.4961   -0.2605    2.3514 C   0  0
    1.1114   -0.9529    3.3763 C   0  0
    1.8652   -2.0783    3.0985 C   0  0
    2.0026   -2.5181    1.7947 C   0  0
    1.3860   -1.8326    0.7641 C   0  0
    1.5210   -2.2616   -0.5099 F   0  0
    5.4396    2.9092   -0.8498 H   0  0
    4.8000    4.5420   -0.7985 H   0  0
    4.5072    3.5325   -2.3152 H   0  0
    2.0004    2.5401   -1.9916 H   0  0
    4.2009    3.2851    1.6116 H   0  0
   -0.0971    0.6389    2.5733 H   0  0
    1.0015   -0.6084    4.4151 H   0  0
    2.3568   -2.6251    3.9167 H   0  0
    2.6028   -3.4139    1.5772 H   0  0
  1  2  1  0
  2  6  1  0
  2  3  1  0
  3  4  2  0
  4  5  1  0
  4  7  1  0
  5  6  2  0
  7  8  2  0
  7  9  2  0
  7 10  1  0
 10 11  1  0
 11 16  2  0
 11 12  1  0
 12 13  2  0
 13 14  1  0
 14 15  2  0
 15 16  1  0
 16 17  1  0
  1 18  1  0
  1 19  1  0
  1 20  1  0
  3 21  1  0
  6 22  1  0
 12 23  1  0
 13 24  1  0
 14 25  1  0
 15 26  1  0
M  CHG  1  10  -1
M  END
> <Name>
ZINC21927568

> <reference>
BDB50071320

> <quality>
0.777

> <status>
decoy

$$$$
ZINC05897416
  SciTegic06061311253D

 25 27  0  0  0  0            999 V2000
   -1.4970    2.9484    4.2430 C   0  0
   -2.4902    3.6335    4.9167 C   0  0
   -2.9848    3.1414    6.1135 C   0  0
   -2.4802    1.9534    6.6384 C   0  0
   -1.4890    1.2654    5.9598 C   0  0
   -0.9923    1.7651    4.7637 C   0  0
    0.0162    1.0708    4.0781 N   0  0
    0.1742    0.9607    2.7352 C   0  0
    1.2424    0.2197    2.5321 N   0  0
    1.7657   -0.1315    3.6509 N   0  0
    1.0805    0.3404    4.6354 N   0  0
   -0.8599    1.6695    1.4972 S   0  0
   -0.0127    1.0858    0.0080 C   0  0
   -0.7246    1.5734   -1.1845 C   0  0
   -1.2741    1.9498   -2.1049 N   0  0
   -3.1252    1.6862    7.8115 O   0  0
   -4.3112    2.5024    7.7928 C   0  0
   -3.9461    3.6176    6.9586 O   0  0
   -1.1060    3.3414    3.2929 H   0  0
   -2.8887    4.5711    4.5020 H   0  0
   -1.0951    0.3231    6.3682 H   0  0
    0.0026   -0.0141    0.0009 H   0  0
    1.0191    1.4670   -0.0002 H   0  0
   -4.5506    2.8505    8.8084 H   0  0
   -5.1473    1.9482    7.3413 H   0  0
  1  6  2  0
  1  2  1  0
  2  3  2  0
  3 18  1  0
  3  4  1  0
  4  5  2  0
  4 16  1  0
  5  6  1  0
  6  7  1  0
  7 11  1  0
  7  8  1  0
  8  9  2  0
  8 12  1  0
  9 10  1  0
 10 11  2  0
 12 13  1  0
 13 14  1  0
 14 15  3  0
 16 17  1  0
 17 18  1  0
  1 19  1  0
  2 20  1  0
  5 21  1  0
 13 22  1  0
 13 23  1  0
 17 24  1  0
 17 25  1  0
M  END
> <Name>
ZINC05897416

> <reference>
BDB50071320

> <quality>
0.774

> <status>
decoy

$$$$
ZINC06863389
  SciTegic06061311253D

 25 27  0  0  0  0            999 V2000
   -1.2720   -2.1474   -0.0036 C   0  0
   -2.4652   -2.8400    0.0095 C   0  0
   -3.6671   -2.1528    0.0242 C   0  0
   -3.6783   -0.7683    0.0317 C   0  0
   -2.4905   -0.0665    0.0245 C   0  0
   -1.2778   -0.7536    0.0097 C   0  0
    0.0021   -0.0041    0.0020 C   0  0
    1.2090   -0.7029   -0.0133 C   0  0
    2.3757   -0.0404   -0.0208 N   0  0
    2.3610    1.3234   -0.0134 C   0  0
    3.4807    2.0392   -0.0197 N   0  0
    3.4559    3.3560   -0.0120 C   0  0
    2.3485    4.0680    0.0023 N   0  0
    1.1458    3.4764    0.0102 C   0  0
    0.1154    4.1319    0.0236 O   0  0
    1.1170    2.0027    0.0021 C   0  0
   -0.0159    1.3229    0.0093 N   0  0
   -5.1651   -3.0301    0.0327 Cl  0  0
   -0.3178   -2.6942   -0.0245 H   0  0
   -2.4616   -3.9400    0.0083 H   0  0
   -4.6358   -0.2270    0.0434 H   0  0
   -2.5005    1.0334    0.0304 H   0  0
    1.2043   -1.8029   -0.0192 H   0  0
    3.2686   -0.5538   -0.0320 H   0  0
    4.4164    3.8922   -0.0179 H   0  0
  1  6  2  0
  1  2  1  0
  2  3  2  0
  3  4  1  0
  3 18  1  0
  4  5  2  0
  5  6  1  0
  6  7  1  0
  7 17  1  0
  7  8  2  0
  8  9  1  0
  9 10  1  0
 10 16  1  0
 10 11  2  0
 11 12  1  0
 12 13  2  0
 13 14  1  0
 14 15  2  0
 14 16  1  0
 16 17  2  0
  1 19  1  0
  2 20  1  0
  4 21  1  0
  5 22  1  0
  8 23  1  0
  9 24  1  0
 12 25  1  0
M  END
> <Name>
ZINC06863389

> <reference>
BDB50071320

> <quality>
0.772

> <status>
decoy

$$$$
ZINC05763050
  SciTegic06061311253D

 29 30  0  0  0  0            999 V2000
    1.7881    2.8964   -1.4552 C   0  0
    0.4469    2.3936   -1.9236 C   0  0
   -0.2445    1.5739   -1.1711 C   0  0
    0.2117    1.2744    0.2336 C   0  0
   -0.8935    1.5087    1.1664 N   0  0
   -1.7695    0.4763    1.4792 C   0  0
   -1.6943   -0.7564    0.8120 C   0  0
   -2.6054   -1.7658    1.1766 C   0  0
   -2.3072   -2.8469    0.3856 N   0  0
   -1.2591   -2.4939   -0.4103 C   0  0
   -0.8990   -1.2689   -0.1564 N   0  0
   -3.5017   -1.5140    2.1223 N   0  0
   -3.5376   -0.3397    2.7170 C   0  0
   -2.7010    0.6348    2.4127 N   0  0
   -1.0533    2.6735    1.6973 N   0  0
   -2.0235    2.8946    2.3998 O   0  0
   -0.0989    2.8336   -3.2575 C   0  0
    2.3847    1.9924   -1.2633 H   0  0
    1.5942    3.3747   -0.4838 H   0  0
    2.2763    3.5774   -2.1678 H   0  0
   -1.1581    1.1042   -1.5646 H   0  0
    1.0555    1.9303    0.4939 H   0  0
    0.5300    0.2235    0.2997 H   0  0
   -2.7876   -3.7580    0.3923 H   0  0
   -0.7865   -3.1481   -1.1578 H   0  0
   -4.2933   -0.1643    3.4968 H   0  0
    0.6780    2.5547   -3.9846 H   0  0
   -0.1098    3.9324   -3.2078 H   0  0
   -1.0835    2.4107   -3.5060 H   0  0
  1  2  1  0
  2  3  2  0
  2 17  1  0
  3  4  1  0
  4  5  1  0
  5  6  1  0
  5 15  1  0
  6 14  1  0
  6  7  2  0
  7 11  1  0
  7  8  1  0
  8  9  1  0
  8 12  2  0
  9 10  1  0
 10 11  2  0
 12 13  1  0
 13 14  2  0
 15 16  2  0
  1 18  1  0
  1 19  1  0
  1 20  1  0
  3 21  1  0
  4 22  1  0
  4 23  1  0
  9 24  1  0
 10 25  1  0
 13 26  1  0
 17 27  1  0
 17 28  1  0
 17 29  1  0
M  END
> <Name>
ZINC05763050

> <reference>
BDB50071320

> <quality>
0.769

> <status>
decoy

$$$$
ZINC06200956
  SciTegic06061311253D

 28 28  0  0  0  0            999 V2000
   -3.9476   -2.0798   -0.5248 C   0  0
   -3.7567   -0.6435   -0.1104 C   0  0
   -4.8442    0.1824    0.1353 C   0  0
   -4.0103    1.7023    0.5693 S   0  0
   -2.3818    1.1264    0.3924 C   0  0
   -2.5607   -0.1323    0.0236 N   0  0
   -1.1950    1.8125    0.5831 N   0  0
   -0.0166    1.1862    0.3945 C   0  0
    0.0038    0.0214    0.0577 O   0  0
    1.2755    1.9351    0.5962 C   0  0  1  0  0  0
    2.3540    1.0823    0.3375 F   0  0
    1.3235    3.0261   -0.2781 F   0  0
    1.3485    2.3919    1.9165 F   0  0
   -6.2761   -0.1098    0.0596 C   0  0
   -6.6566   -1.2579   -0.0781 O   0  0
   -7.1736    0.8922    0.1423 N   0  0
   -8.6044    0.5889    0.2262 C   0  0
   -6.7184    2.2847    0.1484 C   0  0
   -3.3881   -2.6638    0.2208 H   0  0
   -3.4084   -2.1706   -1.4793 H   0  0
   -5.0008   -2.3877   -0.6015 H   0  0
   -1.2124    2.8018    0.8692 H   0  0
   -8.7076   -0.0659    1.1040 H   0  0
   -8.8207   -0.0213   -0.6631 H   0  0
   -9.2459    1.4802    0.2897 H   0  0
   -6.1300    2.3980   -0.7741 H   0  0
   -6.0171    2.3533    0.9930 H   0  0
   -7.5337    3.0198    0.2191 H   0  0
  1  2  1  0
  2  6  1  0
  2  3  2  0
  3  4  1  0
  3 14  1  0
  4  5  1  0
  5  6  2  0
  5  7  1  0
  7  8  1  0
  8  9  2  0
  8 10  1  0
 10 11  1  0
 10 12  1  0
 10 13  1  0
 14 15  2  0
 14 16  1  0
 16 17  1  0
 16 18  1  0
  1 19  1  0
  1 20  1  0
  1 21  1  0
  7 22  1  0
 17 23  1  0
 17 24  1  0
 17 25  1  0
 18 26  1  0
 18 27  1  0
 18 28  1  0
M  END
> <Name>
ZINC06200956

> <reference>
BDB50071320

> <quality>
0.768

> <status>
decoy

$$$$
ZINC23731806
  SciTegic06061311253D

 36 39  0  0  1  0            999 V2000
    1.1112    1.9337    0.0018 C   0  0
   -0.0126    1.0758    0.0080 C   0  0
   -1.1035    1.8627    0.0167 C   0  0
   -0.7023    3.1444    0.0243 O   0  0
    0.6398    3.1935    0.0123 C   0  0
   -2.5334    1.3868    0.0207 C   0  0  1  0  0  0
   -3.0817    1.4553    1.4227 C   0  0
   -3.3123    0.4619    2.2891 C   0  0
   -3.8219    0.7261    3.5378 N   0  0
   -4.0760    2.0278    3.8449 C   0  0
   -3.5872    2.8848    2.3674 S   0  0
   -4.5520    2.1066    5.0576 N   0  0
   -4.6268    0.8849    5.5813 C   0  0
   -4.1991    0.0147    4.7065 N   0  0
   -3.0402   -0.8218    1.9303 O   0  5
   -3.3370    2.2432   -0.8618 N   0  0
   -4.7565    1.8712   -0.8062 C   0  0
   -5.5797    2.8717   -1.6206 C   0  0
   -5.0884    2.8687   -3.0709 C   0  0
   -3.5963    3.2117   -3.0968 C   0  0
   -2.8306    2.2013   -2.2396 C   0  0
    2.1682    1.6294   -0.0095 H   0  0
    0.0023   -0.0241    0.0061 H   0  0
    1.2500    4.1087    0.0112 H   0  0
   -2.5751    0.3481   -0.3390 H   0  0
   -4.9913    0.6462    6.5913 H   0  0
   -5.0985    1.8813    0.2392 H   0  0
   -4.8879    0.8625   -1.2249 H   0  0
   -6.6409    2.5833   -1.5924 H   0  0
   -5.4604    3.8792   -1.1954 H   0  0
   -5.6470    3.6181   -3.6508 H   0  0
   -5.2434    1.8719   -3.5094 H   0  0
   -3.2274    3.1682   -4.1322 H   0  0
   -3.4441    4.2239   -2.6938 H   0  0
   -1.7600    2.4540   -2.2446 H   0  0
   -2.9705    1.1912   -2.6522 H   0  0
  1  5  2  0
  1  2  1  0
  2  3  2  0
  3  4  1  0
  3  6  1  0
  4  5  1  0
  6  7  1  0
  6 16  1  0
  7 11  1  0
  7  8  2  0
  8  9  1  0
  8 15  1  0
  9 14  1  0
  9 10  1  0
 10 11  1  0
 10 12  2  0
 12 13  1  0
 13 14  2  0
 16 21  1  0
 16 17  1  0
 17 18  1  0
 18 19  1  0
 19 20  1  0
 20 21  1  0
  1 22  1  0
  2 23  1  0
  5 24  1  0
  6 25  1  0
 13 26  1  0
 17 27  1  0
 17 28  1  0
 18 29  1  0
 18 30  1  0
 19 31  1  0
 19 32  1  0
 20 33  1  0
 20 34  1  0
 21 35  1  0
 21 36  1  0
M  CHG  1  15  -1
M  END
> <Name>
ZINC23731806

> <reference>
BDB50071320

> <quality>
0.767

> <status>
decoy

$$$$
ZINC08212025
  SciTegic06061311253D

 27 29  0  0  1  0            999 V2000
   -0.0127    1.0858    0.0080 C   0  0
   -1.1502    1.7810   -0.7428 C   0  0
   -1.1356    1.7728    0.7878 C   0  0  2  0  0  0
   -0.8156    3.0303    1.4679 N   0  0
   -0.3739    4.1576    0.8754 C   0  0
   -0.1702    4.3124   -0.3157 O   0  0
   -0.1982    5.0833    1.8409 N   0  0
   -0.5481    4.4885    3.0609 N   0  0
   -0.9203    3.2644    2.8204 C   0  0
   -1.4636    2.0997    4.0258 S   0  0
   -1.3328    3.1110    5.5212 C   0  0  2  0  0  0
   -1.7214    2.2827    6.7661 C   0  0
   -2.6561    3.2532    7.5236 C   0  0
   -3.2174    4.1053    6.4816 O   0  0
   -2.3360    4.2432    5.4808 C   0  0
   -2.3423    5.1371    4.6680 O   0  0
   -0.1355   -0.0073    0.0021 H   0  0
    0.9042    1.6935    0.0021 H   0  0
   -1.8735    1.0548   -1.1422 H   0  0
   -0.8328    2.7552   -1.1431 H   0  0
   -1.8423    1.4620    1.5714 H   0  0
    0.1323    6.0495    1.7063 H   0  0
   -0.2960    3.4752    5.5707 H   0  0
   -0.8307    2.0599    7.3718 H   0  0
   -2.2713    1.3781    6.4673 H   0  0
   -3.4569    2.6905    8.0256 H   0  0
   -2.0758    3.8579    8.2360 H   0  0
  1  3  1  0
  1  2  1  0
  2  3  1  0
  3  4  1  0
  4  9  1  0
  4  5  1  0
  5  6  2  0
  5  7  1  0
  7  8  1  0
  8  9  2  0
  9 10  1  0
 10 11  1  0
 11 15  1  0
 11 12  1  0
 12 13  1  0
 13 14  1  0
 14 15  1  0
 15 16  2  0
  1 17  1  0
  1 18  1  0
  2 19  1  0
  2 20  1  0
  3 21  1  0
  7 22  1  0
 11 23  1  0
 12 24  1  0
 12 25  1  0
 13 26  1  0
 13 27  1  0
M  END
> <Name>
ZINC08212025

> <reference>
BDB50071320

> <quality>
0.766

> <status>
decoy

$$$$
ZINC08743702
  SciTegic06061311253D

 38 40  0  0  0  0            999 V2000
   -5.9489    5.1681    5.3273 C   0  0
   -5.2797    4.7097    6.4481 C   0  0
   -4.1483    3.9324    6.3098 C   0  0
   -3.6790    3.6091    5.0360 C   0  0
   -4.3553    4.0793    3.9097 C   0  0
   -5.4888    4.8511    4.0616 C   0  0
   -2.4663    2.7764    4.8805 C   0  0
   -1.7963    2.3170    5.9607 C   0  0
   -0.4676    1.3951    5.2067 S   0  0
   -0.8733    1.6812    3.5447 C   0  0
   -0.2489    1.2509    2.4471 N   0  0
   -0.7181    1.5718    1.2479 C   0  0
   -1.7176    2.2582    1.1495 O   0  0
   -0.0127    1.0858    0.0080 C   0  0
   -2.0572    0.9632   -1.2851 C   0  0
   -2.7837    1.5414   -2.5024 C   0  0
   -1.9941    1.3170   -3.6735 O   0  0
   -0.6886    1.8973   -3.6076 C   0  0
    0.0591    1.3228   -2.4015 C   0  0
   -1.9935    2.4508    3.6419 N   0  0
   -0.7273    1.5992   -1.1807 N   0  0
   -6.8507    5.7873    5.4430 H   0  0
   -5.6505    4.9655    7.4516 H   0  0
   -3.6173    3.5683    7.2017 H   0  0
   -3.9855    3.8352    2.9029 H   0  0
   -6.0278    5.2152    3.1745 H   0  0
   -2.0137    2.4714    7.0279 H   0  0
    1.0226    1.4575    0.0037 H   0  0
   -0.0128   -0.0141   -0.0097 H   0  0
   -1.9369   -0.1232   -1.4082 H   0  0
   -2.6382    1.1733   -0.3750 H   0  0
   -3.7592    1.0462   -2.6173 H   0  0
   -2.9334    2.6222   -2.3628 H   0  0
   -0.1349    1.6617   -4.5284 H   0  0
   -0.7755    2.9885   -3.4990 H   0  0
    0.1778    0.2362   -2.5248 H   0  0
    1.0473    1.7988   -2.3183 H   0  0
   -2.4760    2.7817    2.7942 H   0  0
  1  6  2  0
  1  2  1  0
  2  3  2  0
  3  4  1  0
  4  5  2  0
  4  7  1  0
  5  6  1  0
  7 20  1  0
  7  8  2  0
  8  9  1  0
  9 10  1  0
 10 11  2  0
 10 20  1  0
 11 12  1  0
 12 13  2  0
 12 14  1  0
 14 21  1  0
 15 16  1  0
 15 21  1  0
 16 17  1  0
 17 18  1  0
 18 19  1  0
 19 21  1  0
  1 22  1  0
  2 23  1  0
  3 24  1  0
  5 25  1  0
  6 26  1  0
  8 27  1  0
 14 28  1  0
 14 29  1  0
 15 30  1  0
 15 31  1  0
 16 32  1  0
 16 33  1  0
 18 34  1  0
 18 35  1  0
 19 36  1  0
 19 37  1  0
 20 38  1  0
M  END
> <Name>
ZINC08743702

> <reference>
BDB50071320

> <quality>
0.766

> <status>
decoy

$$$$
ZINC04659118
  SciTegic06061311253D

 31 32  0  0  0  0            999 V2000
    7.9598    0.8629   -3.6959 C   0  0
    7.2966    1.3883   -2.5972 C   0  0
    6.5733    2.5595   -2.7611 C   0  0
    6.5462    3.1662   -4.0028 C   0  0
    7.1928    2.6403   -5.0246 N   0  0
    7.8862    1.5247   -4.9066 C   0  0
    5.8311    3.1669   -1.5987 C   0  0
    3.9924    1.8973   -0.6140 C   0  0
    2.5697    1.4056   -0.6842 C   0  0
    1.1323    1.8796   -0.7576 C   0  0
    0.7287    2.7535   -0.0283 O   0  0
    0.2176    1.2270   -1.7696 C   0  0
    0.2352   -0.2888   -1.5539 C   0  0
    1.2288   -0.8026   -0.4227 C   0  0
    2.5478   -0.1096   -0.6816 C   0  0
    3.5549   -0.7456   -0.8806 O   0  0
    4.4217    2.6434   -1.6067 N   0  0
    8.5372   -0.0689   -3.6047 H   0  0
    7.3434    0.8876   -1.6189 H   0  0
    5.9787    4.0984   -4.1401 H   0  0
    8.4121    1.1163   -5.7822 H   0  0
    5.8178    4.2622   -1.6996 H   0  0
    6.3242    2.8835   -0.6571 H   0  0
    4.6450    1.6420    0.2339 H   0  0
   -0.8069    1.6049   -1.6371 H   0  0
    0.5685    1.4571   -2.7864 H   0  0
   -0.7838   -0.6186   -1.3032 H   0  0
    0.5021   -0.7755   -2.5036 H   0  0
    1.3559   -1.8923   -0.5020 H   0  0
    0.8449   -0.5202    0.5687 H   0  0
    4.1891   -0.4130   -0.1970 H   0  0
  1  6  2  0
  1  2  1  0
  2  3  2  0
  3  4  1  0
  3  7  1  0
  4  5  2  0
  5  6  1  0
  7 17  1  0
  8 17  2  0
  8  9  1  0
  9 15  2  0
  9 10  1  0
 10 12  1  0
 10 11  2  0
 12 13  1  0
 13 14  1  0
 14 15  1  0
 15 16  1  0
  1 18  1  0
  2 19  1  0
  4 20  1  0
  6 21  1  0
  7 22  1  0
  7 23  1  0
  8 24  1  0
 12 25  1  0
 12 26  1  0
 13 27  1  0
 13 28  1  0
 14 29  1  0
 14 30  1  0
 16 31  1  0
M  END
> <Name>
ZINC04659118

> <reference>
BDB50071320

> <quality>
0.766

> <status>
decoy

$$$$
ZINC04725818
  SciTegic06061311253D

 39 40  0  0  1  0            999 V2000
   -1.4395   -4.0196    2.3366 C   0  0
   -1.4533   -2.4897    2.3386 C   0  0
   -0.7759   -1.9980    1.1521 O   0  0
   -0.7003   -0.6663    1.0013 C   0  0
   -1.1841    0.0643    1.8332 O   0  0
   -0.0120   -0.0825   -0.2055 C   0  0  1  0  0  0
   -0.0536    1.4618   -0.1552 C   0  0  1  0  0  0
    1.4364    1.8441   -0.0997 C   0  0  2  0  0  0
    1.6548    2.9497    0.9303 C   0  0
    3.1302    3.3617    0.9215 C   0  0
    3.5003    3.7692   -0.3973 O   0  0
    3.3744    2.7435   -1.3845 C   0  0  2  0  0  0
    1.9096    2.3046   -1.4763 C   0  0
    4.2422    1.5466   -0.9906 C   0  0
    3.8320    3.2820   -2.7415 C   0  0
    2.1367    0.6330    0.2989 O   0  0
    1.4639   -0.4263   -0.1898 C   0  0
    1.9524   -1.4699   -0.5533 O   0  0
   -0.6863    2.0057   -1.3679 C   0  0
   -1.1745    2.4255   -2.3038 N   0  0
   -0.3995   -4.3779    2.3340 H   0  0
   -1.9568   -4.3908    1.4396 H   0  0
   -1.9525   -4.3928    3.2352 H   0  0
   -2.4936   -2.1323    2.3409 H   0  0
   -0.9360   -2.1184    3.2356 H   0  0
   -0.5261   -0.4861   -1.0903 H   0  0
   -0.6364    1.8550    0.6908 H   0  0
    1.3832    2.5806    1.9303 H   0  0
    1.0299    3.8183    0.6752 H   0  0
    3.2819    4.1981    1.6196 H   0  0
    3.7524    2.5084    1.2294 H   0  0
    1.8196    1.4746   -2.1925 H   0  0
    1.2936    3.1513   -1.8135 H   0  0
    3.9124    1.1586   -0.0156 H   0  0
    5.2939    1.8618   -0.9224 H   0  0
    4.1456    0.7568   -1.7502 H   0  0
    4.8832    3.5993   -2.6755 H   0  0
    3.2073    4.1418   -3.0253 H   0  0
    3.7353    2.4928   -3.5017 H   0  0
  1  2  1  0
  2  3  1  0
  3  4  1  0
  4  5  2  0
  4  6  1  0
  6 17  1  0
  6  7  1  0
  7  8  1  0
  7 19  1  0
  8 13  1  0
  8  9  1  0
  8 16  1  0
  9 10  1  0
 10 11  1  0
 11 12  1  0
 12 13  1  0
 12 14  1  0
 12 15  1  0
 16 17  1  0
 17 18  2  0
 19 20  3  0
  1 21  1  0
  1 22  1  0
  1 23  1  0
  2 24  1  0
  2 25  1  0
  6 26  1  0
  7 27  1  0
  9 28  1  0
  9 29  1  0
 10 30  1  0
 10 31  1  0
 13 32  1  0
 13 33  1  0
 14 34  1  0
 14 35  1  0
 14 36  1  0
 15 37  1  0
 15 38  1  0
 15 39  1  0
M  END
> <Name>
ZINC04725818

> <reference>
BDB50071320

> <quality>
0.765

> <status>
decoy

$$$$
ZINC06485169
  SciTegic06061311253D

 20 21  0  0  1  0            999 V2000
   -5.2184   -0.2388    1.8943 C   0  0
   -4.9824    0.4592    0.2367 S   0  0
   -6.0078    1.4008   -0.0484 O   0  0
   -4.6687   -0.5726   -0.6887 O   0  0
   -3.5101    1.4198    0.3551 C   0  0
   -2.3551    0.9216    0.0182 N   0  0
   -1.2040    1.6331    0.0166 C   0  0
   -1.2001    2.9646    0.0293 N   0  0
   -2.3637    3.5640    0.2414 C   0  0
   -2.8467    4.7072   -0.1623 N   0  0
   -4.1846    4.7171   -0.1052 C   0  0
   -4.6872    3.6362    0.4278 N   0  0
   -3.5489    2.8325    0.8453 C   0  5
   -0.0111    0.9658    0.0074 N   0  0
   -6.1973   -0.7383    1.9415 H   0  0
   -5.1875    0.5720    2.6370 H   0  0
   -4.4214   -0.9663    2.1076 H   0  0
   -4.7992    5.5529   -0.4710 H   0  0
    0.0152   -0.0638    0.0017 H   0  0
    0.8695    1.5000    0.0061 H   0  0
  1  2  1  0
  2  3  2  0
  2  4  2  0
  2  5  1  0
  5 13  1  0
  5  6  2  0
  6  7  1  0
  7  8  2  0
  7 14  1  0
  8  9  1  0
  9 13  1  0
  9 10  2  0
 10 11  1  0
 11 12  2  0
 12 13  1  0
  1 15  1  0
  1 16  1  0
  1 17  1  0
 11 18  1  0
 14 19  1  0
 14 20  1  0
M  CHG  1  13  -1
M  END
> <Name>
ZINC06485169

> <reference>
BDB50071320

> <quality>
0.764

> <status>
decoy

$$$$
ZINC20858754
  SciTegic06061311253D

 29 31  0  0  0  0            999 V2000
    2.3712    6.4957    0.0122 C   0  0
    1.5470    5.2341    0.0143 C   0  0
    0.1956    5.1635    0.0266 C   0  0
   -0.0787    3.7735    0.0221 C   0  0
   -1.2125    3.0852    0.0293 N   0  0
   -1.2108    1.7591    0.0173 C   0  0
   -0.0126    1.0758    0.0080 C   0  0
    1.1850    1.8026    0.0004 C   0  0
    2.2607    1.2243   -0.0129 O   0  0
    1.1324    3.1545    0.0077 N   0  0
    2.0194    3.9835    0.0036 O   0  0
   -2.5134    1.0013    0.0198 C   0  0
   -3.2489    1.0713    1.6722 S   0  0
   -4.7148    0.1338    1.3945 C   0  0
   -5.1549   -0.4561    0.2902 N   0  0
   -6.2416   -1.0959    0.2667 N   0  0
   -7.0069   -1.2197    1.3319 C   0  0
   -6.0344   -0.3029    2.5234 S   0  0
   -8.3227   -1.9347    1.5010 C   0  0
    3.0107    6.3635   -0.8730 H   0  0
    3.0281    6.3551    0.8832 H   0  0
    1.8117    7.4427    0.0223 H   0  0
   -0.5248    5.9947    0.0376 H   0  0
    0.0023   -0.0241    0.0066 H   0  0
   -3.2030    1.4548   -0.7074 H   0  0
   -2.3291   -0.0479   -0.2545 H   0  0
   -8.0665   -2.9404    1.1365 H   0  0
   -8.9171   -1.4794    0.6952 H   0  0
   -8.7956   -1.9101    2.4939 H   0  0
  1  2  1  0
  2 11  1  0
  2  3  2  0
  3  4  1  0
  4 10  1  0
  4  5  2  0
  5  6  1  0
  6  7  2  0
  6 12  1  0
  7  8  1  0
  8  9  2  0
  8 10  1  0
 10 11  1  0
 12 13  1  0
 13 14  1  0
 14 18  1  0
 14 15  2  0
 15 16  1  0
 16 17  2  0
 17 18  1  0
 17 19  1  0
  1 20  1  0
  1 21  1  0
  1 22  1  0
  3 23  1  0
  7 24  1  0
 12 25  1  0
 12 26  1  0
 19 27  1  0
 19 28  1  0
 19 29  1  0
M  END
> <Name>
ZINC20858754

> <reference>
BDB50071320

> <quality>
0.762

> <status>
decoy

$$$$
ZINC27167221
  SciTegic06061311253D

 32 33  0  0  1  0            999 V2000
    3.7491   -0.4683   -0.0363 C   0  0
    2.3285    0.0346   -0.0200 C   0  0
    1.2194   -0.6453   -0.0130 N   0  0
    0.0021   -0.0041    0.0020 N   0  0
   -0.0163    1.3530    0.0095 C   0  0
   -1.3520    2.4238    0.0220 S   0  0
    1.7325    1.7178   -0.0053 S   0  0
   -1.2470   -0.7695    0.0094 C   0  0
   -1.6772   -1.0179   -1.3731 N   0  0
   -2.0403    0.2369   -2.0450 C   0  0
   -2.7885   -1.9777   -1.4142 C   0  0  2  0  0  0
   -2.3355   -3.3225   -0.8218 C   0  0
   -3.3763   -4.4204   -1.1485 C   0  0
   -4.1185   -3.8187   -2.7200 S   0  0
   -5.4984   -3.5538   -2.5080 O   0  0
   -3.7261   -4.6832   -3.7773 O   0  0
   -3.2201   -2.2190   -2.8890 C   0  0
    4.1529    0.0841    0.8250 H   0  0
    4.1364    0.0933   -0.8992 H   0  0
    3.9571   -1.5484   -0.0441 H   0  0
   -1.0857   -1.7299    0.5208 H   0  0
   -2.0249   -0.1988    0.5378 H   0  0
   -1.1664    0.9049   -2.0468 H   0  0
   -2.8581    0.7155   -1.4863 H   0  0
   -2.3600    0.0357   -3.0781 H   0  0
   -3.6286   -1.5691   -0.8334 H   0  0
   -2.2359   -3.2274    0.2696 H   0  0
   -1.3625   -3.6023   -1.2519 H   0  0
   -2.8784   -5.3868   -1.3164 H   0  0
   -4.1475   -4.4680   -0.3655 H   0  0
   -3.9122   -1.4339   -3.2275 H   0  0
   -2.3418   -2.3489   -3.5384 H   0  0
  1  2  1  0
  2  7  1  0
  2  3  2  0
  3  4  1  0
  4  5  1  0
  4  8  1  0
  5  6  2  0
  5  7  1  0
  8  9  1  0
  9 10  1  0
  9 11  1  0
 11 17  1  0
 11 12  1  0
 12 13  1  0
 13 14  1  0
 14 15  2  0
 14 16  2  0
 14 17  1  0
  1 18  1  0
  1 19  1  0
  1 20  1  0
  8 21  1  0
  8 22  1  0
 10 23  1  0
 10 24  1  0
 10 25  1  0
 11 26  1  0
 12 27  1  0
 12 28  1  0
 13 29  1  0
 13 30  1  0
 17 31  1  0
 17 32  1  0
M  END
> <Name>
ZINC27167221

> <reference>
BDB50071320

> <quality>
0.758

> <status>
decoy

$$$$
ZINC02583070
  SciTegic06061311253D

 29 29  0  0  1  0            999 V2000
   -2.4133    0.1711    1.2637 C   0  0
   -2.3963    1.0609    0.0192 C   0  0  2  0  0  0
   -3.6222    1.9763    0.0300 C   0  0
   -2.4251    0.1847   -1.2347 C   0  0
   -1.1894    1.8682    0.0178 O   0  0
   -0.0144    1.2109    0.0087 C   0  0
    0.0021   -0.0041    0.0020 O   0  0
    1.1435    1.9006    0.0013 N   0  0
    1.1677    3.3535    0.0095 C   0  0
    2.5877    3.9705   -0.0237 C   0  0
    3.5403    2.5424   -0.7091 S   0  0
    2.4556    1.2179   -0.0092 C   0  0  2  0  0  0
    2.4298    0.0081   -0.9074 C   0  0
    3.0460    0.0141   -1.9467 O   0  0
    1.7224   -1.0761   -0.5528 O   0  5
   -3.3272   -0.4412    1.2655 H   0  0
   -2.3923    0.8002    2.1658 H   0  0
   -1.5322   -0.4873    1.2566 H   0  0
   -3.6023    2.6070    0.9310 H   0  0
   -4.5371    1.3656    0.0307 H   0  0
   -3.6106    2.6164   -0.8645 H   0  0
   -3.3392   -0.4272   -1.2348 H   0  0
   -1.5439   -0.4737   -1.2435 H   0  0
   -2.4129    0.8239   -2.1299 H   0  0
    0.6479    3.7099    0.9111 H   0  0
    0.6020    3.7197   -0.8599 H   0  0
    2.6309    4.8198   -0.7214 H   0  0
    2.9398    4.2033    0.9921 H   0  0
    2.7777    0.8378    0.9715 H   0  0
  1  2  1  0
  2  3  1  0
  2  4  1  0
  2  5  1  0
  5  6  1  0
  6  7  2  0
  6  8  1  0
  8 12  1  0
  8  9  1  0
  9 10  1  0
 10 11  1  0
 11 12  1  0
 12 13  1  0
 13 14  2  0
 13 15  1  0
  1 16  1  0
  1 17  1  0
  1 18  1  0
  3 19  1  0
  3 20  1  0
  3 21  1  0
  4 22  1  0
  4 23  1  0
  4 24  1  0
  9 25  1  0
  9 26  1  0
 10 27  1  0
 10 28  1  0
 12 29  1  0
M  CHG  1  15  -1
M  END
> <Name>
ZINC02583070

> <reference>
BDB50071320

> <quality>
0.758

> <status>
decoy

$$$$
ZINC09108759
  SciTegic06061311253D

 35 36  0  0  0  0            999 V2000
    0.0457   -5.4932   -2.8206 C   0  0
    0.0329   -4.0822   -2.2914 C   0  0
    0.0136   -3.1428   -3.0642 O   0  0
    0.0428   -3.8645   -0.9830 N   0  0
    0.0315   -2.6142   -0.5140 C   0  0
    0.0380   -2.1841    0.7717 N   0  5
    0.0224   -0.8278    1.0103 N   0  0
    0.0021   -0.0041    0.0020 C   0  0
   -0.0033   -1.1179   -1.3917 S   0  0
   -0.0184    1.5028    0.0103 C   0  0
    1.4170    2.0324   -0.0006 C   0  0
    0.8159    4.0265   -1.2345 C   0  0
    0.6774    5.5470   -1.1313 C   0  0
    2.0574    6.1652   -0.8902 C   0  0
    2.6612    5.5656    0.3828 C   0  0
    2.7422    4.0445    0.2357 C   0  0
    1.3796    3.5091    0.0306 N   0  3
    0.9282   -5.5531   -3.4745 H   0  0
   -0.8474   -5.5756   -3.4575 H   0  0
    0.0629   -6.2542   -2.0266 H   0  0
   -0.5499    1.8673   -0.8811 H   0  0
   -0.5329    1.8587    0.9151 H   0  0
    1.9541    1.6592    0.8838 H   0  0
    1.9276    1.6967   -0.9153 H   0  0
    1.4884    3.7729   -2.0672 H   0  0
   -0.1735    3.5777   -1.4068 H   0  0
    0.2574    5.9420   -2.0681 H   0  0
    0.0111    5.8001   -0.2934 H   0  0
    1.9577    7.2542   -0.7710 H   0  0
    2.7130    5.9458   -1.7458 H   0  0
    3.6711    5.9732    0.5376 H   0  0
    2.0264    5.8170    1.2453 H   0  0
    3.3708    3.7915   -0.6308 H   0  0
    3.1749    3.6081    1.1480 H   0  0
    0.7809    3.8132    0.8116 H   0  0
  1  2  1  0
  2  3  2  0
  2  4  1  0
  4  5  2  0
  5  9  1  0
  5  6  1  0
  6  7  1  0
  7  8  2  0
  8  9  1  0
  8 10  1  0
 10 11  1  0
 11 17  1  0
 12 13  1  0
 12 17  1  0
 13 14  1  0
 14 15  1  0
 15 16  1  0
 16 17  1  0
  1 18  1  0
  1 19  1  0
  1 20  1  0
 10 21  1  0
 10 22  1  0
 11 23  1  0
 11 24  1  0
 12 25  1  0
 12 26  1  0
 13 27  1  0
 13 28  1  0
 14 29  1  0
 14 30  1  0
 15 31  1  0
 15 32  1  0
 16 33  1  0
 16 34  1  0
 17 35  1  0
M  CHG  2   6  -1  17   1
M  END
> <Name>
ZINC09108759

> <reference>
BDB50071320

> <quality>
0.756

> <status>
decoy

$$$$
ZINC04023600
  SciTegic06061311253D

 29 30  0  0  1  0            999 V2000
   -2.0947    2.8998    5.9017 C   0  0
   -2.6550    3.2831    4.6442 O   0  0
   -2.0184    2.8456    3.5261 C   0  0
   -2.5079    3.1803    2.2719 C   0  0
   -1.8592    2.7339    1.1368 C   0  0
   -0.7233    1.9538    1.2500 C   0  0
   -0.2366    1.6141    2.4988 C   0  0
   -0.8782    2.0630    3.6369 C   0  0
   -0.0179    1.4678    0.0101 C   0  0  2  0  0  0
    0.0021   -0.0041    0.0020 C   0  0
    0.0175   -1.1399   -0.0042 N   0  0
    1.3959    1.9894   -0.0006 C   0  0
    2.2198    1.7483   -1.1124 C   0  0
    3.4948    2.2383   -1.0925 C   0  0
    3.9086    2.9506    0.0538 C   0  0
    5.0397    3.4044    0.1230 O   0  0
    3.0426    3.1239    1.0705 N   0  0
    1.8476    2.6568    1.0247 N   0  0
   -1.0577    3.2667    5.9030 H   0  0
   -2.0635    1.8002    5.9041 H   0  0
   -2.6638    3.2908    6.7580 H   0  0
   -3.4118    3.8006    2.1813 H   0  0
   -2.2467    2.9993    0.1421 H   0  0
    0.6622    0.9859    2.5861 H   0  0
   -0.4854    1.8002    4.6302 H   0  0
   -0.5499    1.8322   -0.8810 H   0  0
    1.8478    1.1793   -1.9772 H   0  0
    4.1765    2.0829   -1.9417 H   0  0
    3.3466    3.6442    1.9058 H   0  0
  1  2  1  0
  2  3  1  0
  3  8  2  0
  3  4  1  0
  4  5  2  0
  5  6  1  0
  6  7  2  0
  6  9  1  0
  7  8  1  0
  9 10  1  0
  9 12  1  0
 10 11  3  0
 12 18  2  0
 12 13  1  0
 13 14  2  0
 14 15  1  0
 15 16  2  0
 15 17  1  0
 17 18  1  0
  1 19  1  0
  1 20  1  0
  1 21  1  0
  4 22  1  0
  5 23  1  0
  7 24  1  0
  8 25  1  0
  9 26  1  0
 13 27  1  0
 14 28  1  0
 17 29  1  0
M  END
> <Name>
ZINC04023600

> <reference>
BDB50071320

> <quality>
0.750

> <status>
decoy

$$$$
ZINC25794154
  SciTegic06061311253D

 41 42  0  0  1  0            999 V2000
   -1.2889   -0.7815    0.0097 C   0  0
    0.0021   -0.0041    0.0020 C   0  0
   -0.0164    1.3586    0.0095 C   0  0
    1.1935    2.0667    0.0018 C   0  0
    2.3701    1.4010   -0.0143 C   0  0
    2.3995    0.0395   -0.0211 N   0  0
    1.2364   -0.6790   -0.0134 C   0  0
    1.2566   -2.0106   -0.0208 N   0  0
    2.3974   -2.6821   -0.0341 C   0  0
    3.5999   -2.0027   -0.0427 C   0  0
    3.5868   -0.6031   -0.0359 C   0  0
    4.6327    0.0268   -0.0428 O   0  0
    2.3839   -4.1890   -0.0407 C   0  0
    1.8065   -4.6791    1.2180 N   0  0
    2.6684   -4.3423    2.3589 C   0  0
    1.5577   -6.1255    1.1551 C   0  0
    0.7477   -6.5484    2.3535 C   0  0
    0.4108   -5.7259    3.1787 O   0  0
    0.3976   -7.8407    2.5082 N   0  0
   -0.3898   -8.2519    3.6732 C   0  0
    0.8045   -8.8342    1.5115 C   0  0
   -1.2186   -1.4374    0.8900 H   0  0
   -1.2351   -1.4274   -0.8791 H   0  0
   -2.1914   -0.1527    0.0217 H   0  0
   -0.9743    1.8993    0.0215 H   0  0
    1.1855    3.1666    0.0089 H   0  0
    3.3142    1.9654   -0.0220 H   0  0
    4.5525   -2.5527   -0.0547 H   0  0
    1.7771   -4.5467   -0.8856 H   0  0
    3.4124   -4.5656   -0.1426 H   0  0
    2.7821   -3.2493    2.4081 H   0  0
    3.6566   -4.8004    2.2053 H   0  0
    2.2240   -4.7150    3.2936 H   0  0
    2.5169   -6.6640    1.1533 H   0  0
    1.0023   -6.3625    0.2357 H   0  0
   -1.2967   -7.6303    3.6401 H   0  0
    0.1969   -7.9266    4.5450 H   0  0
   -0.6189   -9.3275    3.6991 H   0  0
    1.9007   -8.7573    1.4611 H   0  0
    0.4071   -8.4611    0.5561 H   0  0
    0.4654   -9.8561    1.7366 H   0  0
  1  2  1  0
  2  7  1  0
  2  3  2  0
  3  4  1  0
  4  5  2  0
  5  6  1  0
  6 11  1  0
  6  7  1  0
  7  8  2  0
  8  9  1  0
  9 10  2  0
  9 13  1  0
 10 11  1  0
 11 12  2  0
 13 14  1  0
 14 15  1  0
 14 16  1  0
 16 17  1  0
 17 18  2  0
 17 19  1  0
 19 20  1  0
 19 21  1  0
  1 22  1  0
  1 23  1  0
  1 24  1  0
  3 25  1  0
  4 26  1  0
  5 27  1  0
 10 28  1  0
 13 29  1  0
 13 30  1  0
 15 31  1  0
 15 32  1  0
 15 33  1  0
 16 34  1  0
 16 35  1  0
 20 36  1  0
 20 37  1  0
 20 38  1  0
 21 39  1  0
 21 40  1  0
 21 41  1  0
M  END
> <Name>
ZINC25794154

> <reference>
BDB50071320

> <quality>
0.749

> <status>
decoy

$$$$
ZINC02896045
  SciTegic06061311253D

 29 30  0  0  1  0            999 V2000
    0.5950   -1.8824    1.7020 C   0  0
    0.8472   -0.5114    1.1295 C   0  0
    1.8230    0.2492    1.6268 C   0  0
    2.0690    1.5971    1.0852 C   0  0
    2.8920    2.3315    1.5955 O   0  0
    1.3530    2.0011   -0.0001 O   0  0
   -0.0186    1.5238    0.0104 C   0  0  2  0  0  0
    0.0021   -0.0041    0.0020 C   0  0  2  0  0  0
   -1.3877   -0.5523    0.0093 C   0  0
   -2.4112    0.1412   -0.4895 C   0  0
   -2.2188    1.4821   -1.0496 C   0  0
   -3.1708    2.1596   -1.3763 O   0  0
   -0.8031    2.0054   -1.2111 C   0  0  2  0  0  0
   -0.2112    1.4714   -2.4247 O   0  0
   -0.3277    2.2135   -3.5371 C   0  0
   -0.9051    3.2741   -3.4981 O   0  0
    0.2617    1.7238   -4.8347 C   0  0
    0.6728   -2.5648    0.8427 H   0  0
   -0.4621   -1.8703    2.0059 H   0  0
    1.2694   -2.1597    2.5256 H   0  0
    2.4487   -0.1324    2.4471 H   0  0
   -0.5123    1.9191    0.9104 H   0  0
    0.4650   -0.3630   -0.9291 H   0  0
   -1.5704   -1.5498    0.4355 H   0  0
   -3.4184   -0.3009   -0.4806 H   0  0
   -0.7902    3.1028   -1.2850 H   0  0
   -0.1976    0.7390   -5.0056 H   0  0
    1.3274    1.5550   -4.6209 H   0  0
    0.1064    2.4119   -5.6788 H   0  0
  1  2  1  0
  2  8  1  0
  2  3  2  0
  3  4  1  0
  4  5  2  0
  4  6  1  0
  6  7  1  0
  7 13  1  0
  7  8  1  0
  8  9  1  0
  9 10  2  0
 10 11  1  0
 11 12  2  0
 11 13  1  0
 13 14  1  0
 14 15  1  0
 15 16  2  0
 15 17  1  0
  1 18  1  0
  1 19  1  0
  1 20  1  0
  3 21  1  0
  7 22  1  0
  8 23  1  0
  9 24  1  0
 10 25  1  0
 13 26  1  0
 17 27  1  0
 17 28  1  0
 17 29  1  0
M  END
> <Name>
ZINC02896045

> <reference>
BDB50071320

> <quality>
0.747

> <status>
decoy

$$$$
ZINC06724989
  SciTegic06061311253D

 36 38  0  0  0  0            999 V2000
    4.9250    8.7467    5.5905 C   0  0
    5.6414    7.5736    5.1228 O   0  0
    4.9343    6.6599    4.4396 C   0  0
    3.7557    6.8346    4.2390 O   0  0
    5.6104    5.4162    3.9227 C   0  0
    4.6315    4.5857    3.2169 N   0  0
    4.4345    4.7594    1.8857 C   0  0
    3.5763    4.0462    1.2120 N   0  0
    2.8407    3.0971    1.8081 C   0  0
    2.9915    2.8667    3.1789 C   0  0
    3.9302    3.6503    3.8955 C   0  0
    4.0992    3.4865    5.0916 O   0  0
    2.1380    1.8726    3.5159 N   0  0
    1.4830    1.4862    2.4572 C   0  0
    1.8933    2.2107    1.3770 N   0  0
    1.4151    2.0576   -0.0004 C   0  0
   -0.0186    1.5234    0.0104 C   0  0
    0.0021   -0.0041    0.0020 C   0  0
    0.7024   -0.5339    1.2490 C   0  0
    0.4302    0.4041    2.4271 C   0  0
    4.1016    8.3769    6.2192 H   0  0
    4.4848    9.2171    4.6989 H   0  0
    5.5715    9.4465    6.1402 H   0  0
    6.4179    5.6982    3.2310 H   0  0
    6.0313    4.8489    4.7659 H   0  0
    5.0184    5.5276    1.3575 H   0  0
    1.4379    3.0338   -0.5069 H   0  0
    2.0644    1.3512   -0.5384 H   0  0
   -0.5526    1.8865   -0.8801 H   0  0
   -0.5346    1.8771    0.9152 H   0  0
    0.5360   -0.3574   -0.8925 H   0  0
   -1.0305   -0.3824   -0.0237 H   0  0
    0.3206   -1.5381    1.4851 H   0  0
    1.7859   -0.5877    1.0672 H   0  0
    0.4642   -0.1676    3.3662 H   0  0
   -0.5637    0.8605    2.3099 H   0  0
  1  2  1  0
  2  3  1  0
  3  4  2  0
  3  5  1  0
  5  6  1  0
  6 11  1  0
  6  7  1  0
  7  8  2  0
  8  9  1  0
  9 15  1  0
  9 10  2  0
 10 11  1  0
 10 13  1  0
 11 12  2  0
 13 14  2  0
 14 20  1  0
 14 15  1  0
 15 16  1  0
 16 17  1  0
 17 18  1  0
 18 19  1  0
 19 20  1  0
  1 21  1  0
  1 22  1  0
  1 23  1  0
  5 24  1  0
  5 25  1  0
  7 26  1  0
 16 27  1  0
 16 28  1  0
 17 29  1  0
 17 30  1  0
 18 31  1  0
 18 32  1  0
 19 33  1  0
 19 34  1  0
 20 35  1  0
 20 36  1  0
M  END
> <Name>
ZINC06724989

> <reference>
BDB50071320

> <quality>
0.744

> <status>
decoy

$$$$
ZINC02803483
  SciTegic06061311253D

 33 34  0  0  0  0            999 V2000
    2.1811   -0.4226    4.1625 C   0  0
    0.7290   -0.7740    4.3596 C   0  0
   -0.3489    0.1129    4.2702 C   0  0
   -1.4826   -0.5834    4.5168 C   0  0
   -1.1352   -1.8673    4.7453 N   0  0
    0.2588   -1.9613    4.6443 N   0  0
   -2.0534   -2.9672    5.0508 C   0  0
   -0.2477    1.8343    3.9081 S   0  0
    0.7556    2.3703    4.7599 O   0  0
   -1.5808    2.3263    3.8978 O   0  0
    0.3212    1.9762    2.3593 N   0  0
   -0.4760    1.4742    1.2373 C   0  0  2  0  0  0
    0.4406    0.8903    0.1424 C   0  0
   -0.1887    1.2722   -1.2088 C   0  0
   -1.4667    2.0747   -0.8887 C   0  0
   -1.2150    2.6391    0.5316 C   0  0
    2.4987   -1.1267    3.3793 H   0  0
    2.6462   -0.7736    5.0955 H   0  0
    2.3946    0.6306    3.9275 H   0  0
   -2.5043   -0.1760    4.5289 H   0  0
   -2.7595   -2.9305    4.2081 H   0  0
   -2.6048   -2.5836    5.9219 H   0  0
   -1.5997   -3.9565    5.2101 H   0  0
    1.2354    2.4174    2.1848 H   0  0
   -1.1667    0.7265    1.6543 H   0  0
    0.4853   -0.2048    0.2364 H   0  0
    1.4456    1.3300    0.2231 H   0  0
   -0.4504    0.3632   -1.7703 H   0  0
    0.5104    1.8980   -1.7829 H   0  0
   -1.5861    2.8991   -1.6071 H   0  0
   -2.3416    1.4080   -0.8805 H   0  0
   -2.1714    2.8443    1.0347 H   0  0
   -0.5673    3.5267    0.4791 H   0  0
  1  2  1  0
  2  6  2  0
  2  3  1  0
  3  4  2  0
  3  8  1  0
  4  5  1  0
  5  6  1  0
  5  7  1  0
  8  9  2  0
  8 10  2  0
  8 11  1  0
 11 12  1  0
 12 16  1  0
 12 13  1  0
 13 14  1  0
 14 15  1  0
 15 16  1  0
  1 17  1  0
  1 18  1  0
  1 19  1  0
  4 20  1  0
  7 21  1  0
  7 22  1  0
  7 23  1  0
 11 24  1  0
 12 25  1  0
 13 26  1  0
 13 27  1  0
 14 28  1  0
 14 29  1  0
 15 30  1  0
 15 31  1  0
 16 32  1  0
 16 33  1  0
M  END
> <Name>
ZINC02803483

> <reference>
BDB50071320

> <quality>
0.742

> <status>
decoy

$$$$
ZINC13605771
  SciTegic06061311253D

 44 45  0  0  1  0            999 V2000
   -7.4097    6.0280    1.4682 C   0  0
   -5.9133    5.7099    1.4898 C   0  0
   -5.7182    4.3268    1.8864 O   0  0
   -4.4524    3.8854    1.9553 C   0  0
   -3.5378    4.6301    1.6929 O   0  0
   -4.1721    2.4611    2.3599 C   0  0
   -2.7256    2.2288    2.3587 N   0  0
   -2.1156    1.7977    1.2361 C   0  0
   -2.7615    1.6006    0.2227 O   0  0
   -0.7181    1.5718    1.2479 C   0  0
   -0.0248    1.8030    2.3832 C   0  0
   -0.6809    2.2446    3.4999 N   0  0
   -2.0102    2.4509    3.4770 C   0  0
   -2.5731    2.8438    4.4805 O   0  0
    0.0713    2.4955    4.7318 C   0  0  1  0  0  0
    0.6587    1.1745    5.2653 C   0  0
    2.1851    1.4291    5.3108 C   0  0  1  0  0  0
    2.2556    2.9773    5.3310 C   0  0  2  0  0  0
    1.1752    3.3751    4.4598 O   0  0
    3.5981    3.4627    4.7806 C   0  0
    3.6839    4.8825    4.9178 O   0  0
    2.7734    0.8630    6.5272 N   0  0
    2.7896   -0.2507    6.6779 N   0  3
    2.8058   -1.3645    6.8287 N   0  5
   -0.0127    1.0858    0.0080 C   0  0
   -7.8334    5.8717    2.4712 H   0  0
   -7.9159    5.3664    0.7498 H   0  0
   -7.5582    7.0757    1.1678 H   0  0
   -5.4906    5.8662    0.4864 H   0  0
   -5.4070    6.3715    2.2081 H   0  0
   -4.6535    1.7749    1.6476 H   0  0
   -4.5710    2.2812    3.3691 H   0  0
    1.0623    1.6372    2.4103 H   0  0
   -0.6126    2.9437    5.4676 H   0  0
    0.4337    0.3512    4.5713 H   0  0
    0.2790    0.9727    6.2778 H   0  0
    2.7370    0.9703    4.4772 H   0  0
    2.1688    3.3985    6.3435 H   0  0
    4.4173    2.9904    5.3426 H   0  0
    3.6791    3.1922    3.7175 H   0  0
    3.6122    5.1275    5.8743 H   0  0
   -0.2579    1.8296   -0.7644 H   0  0
   -0.5327    0.1556   -0.2646 H   0  0
    1.0712    0.9449    0.1321 H   0  0
  1  2  1  0
  2  3  1  0
  3  4  1  0
  4  5  2  0
  4  6  1  0
  6  7  1  0
  7 13  1  0
  7  8  1  0
  8  9  2  0
  8 10  1  0
 10 11  2  0
 10 25  1  0
 11 12  1  0
 12 13  1  0
 12 15  1  0
 13 14  2  0
 15 19  1  0
 15 16  1  0
 16 17  1  0
 17 18  1  0
 17 22  1  0
 18 19  1  0
 18 20  1  0
 20 21  1  0
 22 23  2  0
 23 24  2  0
  1 26  1  0
  1 27  1  0
  1 28  1  0
  2 29  1  0
  2 30  1  0
  6 31  1  0
  6 32  1  0
 11 33  1  0
 15 34  1  0
 16 35  1  0
 16 36  1  0
 17 37  1  0
 18 38  1  0
 20 39  1  0
 20 40  1  0
 21 41  1  0
 25 42  1  0
 25 43  1  0
 25 44  1  0
M  CHG  2  23   1  24  -1
M  END
> <Name>
ZINC13605771

> <reference>
BDB50021154

> <quality>
0.803

> <status>
decoy

$$$$
ZINC22687245
  SciTegic06061311253D

 39 40  0  0  0  0            999 V2000
    2.5545   -1.9028   -0.5944 C   0  0
    1.8522   -1.1827    0.2448 C   0  0
    1.1820    0.0825   -0.2254 C   0  0
   -0.2489    0.0206    0.0824 N   0  0
   -1.0680    1.0623   -0.2592 C   0  0
   -2.4302    1.0009    0.0283 C   0  0
   -3.2493    2.1248   -0.1977 C   0  0
   -3.1118    3.1265    0.4840 O   0  0
   -4.2765    2.0897   -1.2625 C   0  0
   -4.3507    0.9983   -2.1288 C   0  0
   -5.3143    0.9689   -3.1157 C   0  0
   -6.1986    2.0239   -3.2548 C   0  0
   -6.1267    3.1116   -2.4027 C   0  0
   -5.1713    3.1505   -1.4081 C   0  0
   -7.2264    1.9885   -4.3195 N   0  0
   -8.0064    2.9156   -4.4440 O   0  0
   -7.2920    1.0323   -5.0710 O   0  0
   -2.9754   -0.1577    0.5332 N   0  3
   -3.4924   -0.1509    1.7549 C   0  0
   -4.0471   -1.2934    2.2941 C   0  0
   -4.0617   -2.4600    1.5442 C   0  0
   -3.5121   -2.4353    0.2654 C   0  0
   -2.9760   -1.2520   -0.2154 C   0  0
   -3.5062   -3.5562   -0.5032 O   0  5
   -0.4003    2.4812   -1.0626 S   0  5
    2.6550   -1.5839   -1.6424 H   0  0
    3.0437   -2.8263   -0.2512 H   0  0
    1.7517   -1.5016    1.2928 H   0  0
    1.6296    0.9469    0.2869 H   0  0
    1.3183    0.1891   -1.3117 H   0  0
   -0.6385   -0.8070    0.5559 H   0  0
   -3.6424    0.1631   -2.0251 H   0  0
   -5.3797    0.1049   -3.7934 H   0  0
   -6.8328    3.9471   -2.5185 H   0  0
   -5.1151    4.0159   -0.7314 H   0  0
   -3.4787    0.7771    2.3454 H   0  0
   -4.4733   -1.2791    3.3081 H   0  0
   -4.4979   -3.3843    1.9509 H   0  0
   -2.5468   -1.2199   -1.2277 H   0  0
  1  2  2  0
  2  3  1  0
  3  4  1  0
  4  5  1  0
  5  6  2  0
  5 25  1  0
  6  7  1  0
  6 18  1  0
  7  8  2  0
  7  9  1  0
  9 14  2  0
  9 10  1  0
 10 11  2  0
 11 12  1  0
 12 13  2  0
 12 15  1  0
 13 14  1  0
 15 16  2  0
 15 17  2  0
 18 23  2  0
 18 19  1  0
 19 20  2  0
 20 21  1  0
 21 22  2  0
 22 23  1  0
 22 24  1  0
  1 26  1  0
  1 27  1  0
  2 28  1  0
  3 29  1  0
  3 30  1  0
  4 31  1  0
 10 32  1  0
 11 33  1  0
 13 34  1  0
 14 35  1  0
 19 36  1  0
 20 37  1  0
 21 38  1  0
 23 39  1  0
M  CHG  3  18   1  24  -1  25  -1
M  END
> <Name>
ZINC22687245

> <reference>
BDB50021154

> <quality>
0.793

> <status>
decoy

$$$$
ZINC03037127
  SciTegic06061311253D

 31 31  0  0  0  0            999 V2000
   -1.9292    3.6006    1.2750 C   0  0
   -3.3597    3.0583    1.2514 C   0  0
   -4.2462    3.6266    2.7285 S   0  0
   -3.6999    3.0190    3.8911 O   0  0
   -4.4432    5.0327    2.6705 O   0  0
   -5.6418    3.0332    2.5995 O   0  0
   -5.7068    1.6338    2.8813 C   0  0
   -7.1487    1.1478    2.7213 C   0  0  1  0  0  0
   -7.6162    1.4014    1.2868 C   0  0  1  0  0  0
   -6.7889    0.7077    0.3971 F   0  0
   -8.9347    0.9570    1.1405 F   0  0
   -7.2123   -0.2223    2.9972 F   0  0
   -7.9760    1.8415    3.6110 F   0  0
   -1.1815    3.1214    0.0292 C   0  5
   -1.2003    1.6045    0.0166 C   0  0
   -2.2446    0.9887    0.0183 O   0  0
   -0.0111    0.9658    0.0074 N   0  0
    1.1499    1.6306   -0.0002 C   0  0
    2.1734    0.9762   -0.0126 O   0  0
    1.2662    2.9635    0.0055 N   0  0
    0.1875    3.7749    0.0196 C   0  0
    0.3083    4.9812    0.0242 O   0  0
   -1.4124    3.2358    2.1749 H   0  0
   -1.9539    4.7003    1.2868 H   0  0
   -3.8758    3.4239    0.3514 H   0  0
   -3.3360    1.9586    1.2394 H   0  0
   -5.3711    1.4503    3.9126 H   0  0
   -5.0567    1.0881    2.1815 H   0  0
   -7.5661    2.4787    1.0700 H   0  0
    0.0029   -0.0641    0.0062 H   0  0
    2.2069    3.3830   -0.0011 H   0  0
  1  2  1  0
  1 14  1  0
  2  3  1  0
  3  4  2  0
  3  5  2  0
  3  6  1  0
  6  7  1  0
  7  8  1  0
  8  9  1  0
  8 12  1  0
  8 13  1  0
  9 10  1  0
  9 11  1  0
 14 21  1  0
 14 15  1  0
 15 16  2  0
 15 17  1  0
 17 18  1  0
 18 19  2  0
 18 20  1  0
 20 21  1  0
 21 22  2  0
  1 23  1  0
  1 24  1  0
  2 25  1  0
  2 26  1  0
  7 27  1  0
  7 28  1  0
  9 29  1  0
 17 30  1  0
 20 31  1  0
M  CHG  1  14  -1
M  END
> <Name>
ZINC03037127

> <reference>
BDB50021154

> <quality>
0.765

> <status>
decoy

$$$$
ZINC18424518
  SciTegic06061311253D

 53 54  0  0  1  0            999 V2000
   -4.4805   14.1977   -3.5759 C   0  0
   -4.9845   12.8099   -3.2743 C   0  0
   -6.1794   12.4958   -2.6186 C   0  0
   -6.2735   11.1477   -2.5478 C   0  0
   -5.1726   10.6274   -3.1295 N   0  0
   -4.3802   11.6907   -3.5810 N   0  0
   -4.8637    9.2022   -3.2696 C   0  0
   -4.0798    8.7378   -2.0693 C   0  0
   -3.8060    9.5202   -1.1840 O   0  0
   -3.6829    7.4529   -1.9796 N   0  0
   -2.9208    7.0014   -0.8128 C   0  0
   -2.5982    5.5130   -0.9591 C   0  0  1  0  0  0
   -1.8018    5.0402    0.2599 C   0  0
   -2.8320    2.8598    0.0634 C   0  0
   -3.6181    3.3544   -1.1536 C   0  0
   -3.8152    4.7668   -1.0458 O   0  0
   -0.7496    3.1091    1.2752 C   0  0
   -0.7288    1.5792    1.2668 C   0  0  1  0  0  0
   -0.0127    1.0858    0.0080 C   0  0
    0.0111    1.0724    2.5063 C   0  0
   -7.4034   10.3673   -1.9271 C   0  0
   -7.1690   13.4663   -2.0994 N   0  0
   -8.0797   13.8479   -2.8125 O   0  0
   -7.0727   13.8834   -0.9591 O   0  0
   -1.5487    3.5898    0.1273 N   0  3
   -4.3199   14.1682   -4.6637 H   0  0
   -3.4797   14.1987   -3.1194 H   0  0
   -5.1224   15.0266   -3.2430 H   0  0
   -4.2674    9.0429   -4.1801 H   0  0
   -5.8000    8.6291   -3.3395 H   0  0
   -3.9154    6.7884   -2.7314 H   0  0
   -1.9841    7.5738   -0.7425 H   0  0
   -3.5161    7.1589    0.0987 H   0  0
   -2.0038    5.3569   -1.8714 H   0  0
   -0.8436    5.5785    0.3055 H   0  0
   -2.3804    5.2305    1.1759 H   0  0
   -2.6375    1.7817   -0.0355 H   0  0
   -3.4108    3.0518    0.9789 H   0  0
   -4.5948    2.8498   -1.1910 H   0  0
   -3.0532    3.1319   -2.0709 H   0  0
    0.2783    3.4921    1.1926 H   0  0
   -1.2022    3.4654    2.2123 H   0  0
   -1.7608    1.1984    1.2746 H   0  0
    1.0195    1.4658   -0.0007 H   0  0
   -0.5442    1.4494   -0.8838 H   0  0
    0.0026   -0.0141    0.0013 H   0  0
   -0.5032    1.4264    3.4119 H   0  0
    1.0433    1.4524    2.4994 H   0  0
    0.0264   -0.0275    2.5009 H   0  0
   -8.2845   10.7607   -2.4553 H   0  0
   -7.4516   10.7837   -0.9101 H   0  0
   -7.3150    9.2713   -1.9584 H   0  0
   -1.0217    3.4187   -0.7410 H   0  0
  1  2  1  0
  2  6  2  0
  2  3  1  0
  3  4  2  0
  3 22  1  0
  4  5  1  0
  4 21  1  0
  5  6  1  0
  5  7  1  0
  7  8  1  0
  8  9  2  0
  8 10  1  0
 10 11  1  0
 11 12  1  0
 12 16  1  0
 12 13  1  0
 13 25  1  0
 14 15  1  0
 14 25  1  0
 15 16  1  0
 17 18  1  0
 17 25  1  0
 18 19  1  0
 18 20  1  0
 22 23  2  0
 22 24  2  0
  1 26  1  0
  1 27  1  0
  1 28  1  0
  7 29  1  0
  7 30  1  0
 10 31  1  0
 11 32  1  0
 11 33  1  0
 12 34  1  0
 13 35  1  0
 13 36  1  0
 14 37  1  0
 14 38  1  0
 15 39  1  0
 15 40  1  0
 17 41  1  0
 17 42  1  0
 18 43  1  0
 19 44  1  0
 19 45  1  0
 19 46  1  0
 20 47  1  0
 20 48  1  0
 20 49  1  0
 21 50  1  0
 21 51  1  0
 21 52  1  0
 25 53  1  0
M  CHG  1  25   1
M  END
> <Name>
ZINC18424518

> <reference>
BDB50021154

> <quality>
0.759

> <status>
decoy

$$$$
ZINC22858523
  SciTegic06061311253D

 39 40  0  0  1  0            999 V2000
  -11.9349    4.1591   -0.3603 C   0  0
  -10.6268    4.6052   -0.8582 N   0  3
  -10.7284    5.0950   -2.2394 C   0  0
  -10.0496    5.6295    0.0225 C   0  0  1  0  0  0
   -8.6710    6.0354   -0.5024 C   0  0
   -7.8308    4.8433   -0.6410 N   0  0
   -6.5655    4.9592   -1.0904 C   0  0
   -6.1221    6.0511   -1.3803 O   0  0
   -5.7092    3.7442   -1.2316 C   0  0
   -6.1526    2.6521   -0.9416 O   0  5
   -4.4438    3.8601   -1.6810 N   0  0
   -3.6481    2.7311   -1.8122 C   0  0
   -3.9457    1.4724   -1.5518 N   0  0
   -3.0636    0.5104   -1.7336 C   0  0
   -1.8328    0.8412   -2.1976 C   0  0
   -2.0027    2.6130   -2.3548 S   0  0
   -0.6681   -0.0255   -2.4877 N   0  0
   -0.7444   -1.2280   -2.3095 O   0  0
    0.3648    0.4633   -2.9092 O   0  0
  -10.9523    6.8359    0.0488 C   0  0
  -11.3647    7.4859    1.1519 C   0  0
  -12.1884    8.5494    0.7168 C   0  0
  -12.2367    8.4808   -0.6257 C   0  0
  -11.4862    7.4410   -1.0248 O   0  0
  -12.3062    3.3525   -1.0096 H   0  0
  -12.6373    5.0047   -0.3993 H   0  0
  -11.8437    3.7954    0.6738 H   0  0
   -9.9936    3.7928   -0.8562 H   0  0
  -11.4379    5.9351   -2.2674 H   0  0
  -11.1068    4.2829   -2.8776 H   0  0
   -9.7426    5.4253   -2.5986 H   0  0
   -9.9496    5.2241    1.0402 H   0  0
   -8.7805    6.5222   -1.4827 H   0  0
   -8.2000    6.7350    0.2038 H   0  0
   -8.2071    3.9166   -0.3950 H   0  0
   -3.3196   -0.5366   -1.5141 H   0  0
  -11.1099    7.2376    2.1928 H   0  0
  -12.6930    9.2907    1.3539 H   0  0
  -12.7960    9.1610   -1.2849 H   0  0
  1  2  1  0
  2  3  1  0
  2  4  1  0
  4  5  1  0
  4 20  1  0
  5  6  1  0
  6  7  1  0
  7  8  2  0
  7  9  1  0
  9 10  1  0
  9 11  2  0
 11 12  1  0
 12 16  1  0
 12 13  2  0
 13 14  1  0
 14 15  2  0
 15 16  1  0
 15 17  1  0
 17 18  2  0
 17 19  2  0
 20 24  1  0
 20 21  2  0
 21 22  1  0
 22 23  2  0
 23 24  1  0
  1 25  1  0
  1 26  1  0
  1 27  1  0
  2 28  1  0
  3 29  1  0
  3 30  1  0
  3 31  1  0
  4 32  1  0
  5 33  1  0
  5 34  1  0
  6 35  1  0
 14 36  1  0
 21 37  1  0
 22 38  1  0
 23 39  1  0
M  CHG  2   2   1  10  -1
M  END
> <Name>
ZINC22858523

> <reference>
BDB50021154

> <quality>
0.747

> <status>
decoy

$$$$
ZINC04324979
  SciTegic06061311253D

 41 42  0  0  1  0            999 V2000
   11.4587   -9.0000    0.0534 C   0  0
   10.1837   -9.6337    0.1748 O   0  0
    9.0879   -8.8299    0.1286 C   0  0
    7.8194   -9.3795    0.2403 C   0  0
    6.7062   -8.5630    0.1934 C   0  0
    6.8571   -7.1933    0.0354 C   0  0
    8.1254   -6.6442   -0.0812 C   0  0
    9.2387   -7.4602   -0.0299 C   0  0
    5.7612   -6.3894   -0.0107 O   0  0
    5.9907   -4.9886   -0.1752 C   0  0
    4.6500   -4.2521   -0.2043 C   0  0  1  0  0  0
    4.8979   -2.7432   -0.2549 C   0  0
    3.6190   -2.0348   -0.1624 N   0  0
    3.5916   -0.6875   -0.1869 C   0  0
    4.6275   -0.0606   -0.2857 O   0  0
    2.2967    0.0297   -0.0932 C   0  0
    2.2712    1.4304   -0.0104 C   0  0
    1.1061    2.0640    0.0737 N   0  0
   -0.0191    1.3767    0.0790 C   0  0
    0.0062   -0.0104   -0.0030 C   0  0
    1.1558   -0.6510   -0.0869 N   0  0
    3.5382    2.1996   -0.0161 C   0  0
    4.1429    2.3655   -1.0557 O   0  0
    3.9115   -4.6526   -1.3603 O   0  0
    4.0185    2.7144    1.1318 O   0  5
   11.5137   -8.2582    0.8637 H   0  0
   11.4436   -8.4553   -0.9022 H   0  0
   12.2946   -9.7135    0.0998 H   0  0
    7.6998  -10.4657    0.3663 H   0  0
    5.7001   -8.9990    0.2813 H   0  0
    8.2447   -5.5588   -0.2145 H   0  0
   10.2449   -7.0238   -0.1147 H   0  0
    6.5258   -4.8120   -1.1199 H   0  0
    6.5955   -4.6149    0.6642 H   0  0
    4.0762   -4.4992    0.7011 H   0  0
    5.5413   -2.4488    0.5873 H   0  0
    5.3925   -2.4833   -1.2025 H   0  0
    2.7407   -2.5663   -0.0786 H   0  0
   -0.9822    1.9036    0.1486 H   0  0
   -0.9369   -0.5765    0.0021 H   0  0
    3.7503   -5.6289   -1.3282 H   0  0
  1  2  1  0
  2  3  1  0
  3  8  2  0
  3  4  1  0
  4  5  2  0
  5  6  1  0
  6  7  2  0
  6  9  1  0
  7  8  1  0
  9 10  1  0
 10 11  1  0
 11 12  1  0
 11 24  1  0
 12 13  1  0
 13 14  1  0
 14 15  2  0
 14 16  1  0
 16 21  2  0
 16 17  1  0
 17 18  2  0
 17 22  1  0
 18 19  1  0
 19 20  2  0
 20 21  1  0
 22 23  2  0
 22 25  1  0
  1 26  1  0
  1 27  1  0
  1 28  1  0
  4 29  1  0
  5 30  1  0
  7 31  1  0
  8 32  1  0
 10 33  1  0
 10 34  1  0
 11 35  1  0
 12 36  1  0
 12 37  1  0
 13 38  1  0
 19 39  1  0
 20 40  1  0
 24 41  1  0
M  CHG  1  25  -1
M  END
> <Name>
ZINC04324979

> <reference>
BDB50021154

> <quality>
0.743

> <status>
decoy

$$$$
ZINC20438481
  SciTegic06061311253D

 46 47  0  0  0  0            999 V2000
   10.8443   -0.0669   -3.2448 C   0  0
    9.3443   -0.3531   -3.1510 C   0  0
    8.9539   -0.4370   -1.7550 O   0  0
    7.6601   -0.6851   -1.4978 C   0  0
    6.8796   -0.8275   -2.4091 O   0  0
    7.1810   -0.7860   -0.0726 C   0  0
    5.7419   -1.0601   -0.0594 N   0  0
    5.2035   -2.2940   -0.0604 C   0  0
    5.8048   -3.3468   -0.0721 O   0  0
    3.7012   -2.1105   -0.0442 C   0  0
    3.5102   -0.6510   -0.0345 N   0  0
    4.7684   -0.0913   -0.0496 C   0  0
    5.0041    1.1883   -0.0511 N   0  0
    2.3029    0.0259   -0.0193 C   0  0
    2.2862    1.3545   -0.0125 N   0  0
    1.1265    2.0037    0.0021 C   0  0
   -0.0159    1.3230    0.0093 N   0  0
    0.0021   -0.0041    0.0020 C   0  0
    1.1604   -0.6529   -0.0121 N   0  0
   -1.1606   -0.6961    0.0094 O   0  0
   -2.3692    0.0661    0.0250 C   0  0
    1.1079    3.3836    0.0097 N   0  0
   -0.1705    4.0989    0.0257 C   0  0  1  0  0  0
    0.0287    5.4855    0.6409 C   0  0
   -0.6906    4.2459   -1.4056 C   0  0
   11.4046   -0.8777   -2.7562 H   0  0
   11.0687    0.8865   -2.7441 H   0  0
   11.1407   -0.0032   -4.3022 H   0  0
    8.7848    0.4583   -3.6395 H   0  0
    9.1198   -1.3065   -3.6517 H   0  0
    7.7139   -1.6025    0.4366 H   0  0
    7.3777    0.1620    0.4495 H   0  0
    3.2753   -2.5539    0.8679 H   0  0
    3.2578   -2.5443   -0.9526 H   0  0
    5.9926    1.4776   -0.0603 H   0  0
   -2.3359    0.7170   -0.8611 H   0  0
   -2.3190    0.7076    0.9172 H   0  0
   -3.2700   -0.5652    0.0302 H   0  0
    1.9929    3.9106    0.0041 H   0  0
   -0.8997    3.5334    0.6245 H   0  0
    0.7575    6.0520    0.0426 H   0  0
    0.4024    5.3809    1.6702 H   0  0
   -0.9309    6.0232    0.6532 H   0  0
   -0.8343    3.2494   -1.8487 H   0  0
    0.0378    4.8116   -2.0052 H   0  0
   -1.6505    4.7829   -1.3943 H   0  0
  1  2  1  0
  2  3  1  0
  3  4  1  0
  4  5  2  0
  4  6  1  0
  6  7  1  0
  7 12  1  0
  7  8  1  0
  8  9  2  0
  8 10  1  0
 10 11  1  0
 11 12  1  0
 11 14  1  0
 12 13  2  0
 14 19  2  0
 14 15  1  0
 15 16  2  0
 16 17  1  0
 16 22  1  0
 17 18  2  0
 18 19  1  0
 18 20  1  0
 20 21  1  0
 22 23  1  0
 23 24  1  0
 23 25  1  0
  1 26  1  0
  1 27  1  0
  1 28  1  0
  2 29  1  0
  2 30  1  0
  6 31  1  0
  6 32  1  0
 10 33  1  0
 10 34  1  0
 13 35  1  0
 21 36  1  0
 21 37  1  0
 21 38  1  0
 22 39  1  0
 23 40  1  0
 24 41  1  0
 24 42  1  0
 24 43  1  0
 25 44  1  0
 25 45  1  0
 25 46  1  0
M  END
> <Name>
ZINC20438481

> <reference>
BDB50021154

> <quality>
0.733

> <status>
decoy

$$$$
ZINC01726296
  SciTegic06061311253D

 37 37  0  0  1  0            999 V2000
   -2.4710    0.0025    0.0256 C   0  0
   -1.1934   -0.7142    0.0096 N   0  0
    0.0021   -0.0041    0.0020 C   0  0
   -0.0168    1.3882    0.0097 C   0  0
    1.1644    2.0937    0.0022 C   0  0
    2.3845    1.4112   -0.0131 C   0  0
    2.4001    0.0135   -0.0212 C   0  0
    1.2152   -0.6865   -0.0137 C   0  0
    1.2311   -2.1934   -0.0219 C   0  0  1  0  0  0
    2.5549   -2.6457   -0.0375 F   0  0
    0.5879   -2.6728    1.1242 F   0  0
    0.5653   -2.6605   -1.1602 F   0  0
    3.6528    2.1646   -0.0216 C   0  0
    4.7133    1.5697   -0.0357 O   0  0
    3.6362    3.5122   -0.0138 N   0  0
    4.8957    4.2604   -0.0222 C   0  0  2  0  0  0
    4.6727    5.6414    0.5975 C   0  0
    4.3052    5.4842    2.0744 C   0  0
    4.0856    6.8444    2.6849 C   0  0
    4.2103    7.8376    2.0082 O   0  0
    5.3765    4.4185   -1.4417 C   0  0
    4.7331    3.9540   -2.3528 O   0  0
    3.7515    6.9526    3.9804 O   0  5
    6.5195    5.0755   -1.6939 O   0  5
   -2.4402    0.6593   -0.8562 H   0  0
   -2.4233    0.6499    0.9137 H   0  0
   -3.3535   -0.6541    0.0305 H   0  0
   -1.1807   -1.7441    0.0040 H   0  0
   -0.9771    1.9246    0.0218 H   0  0
    1.1488    3.1936    0.0082 H   0  0
    3.3584   -0.5264   -0.0336 H   0  0
    2.7379    4.0161   -0.0019 H   0  0
    5.6507    3.7140    0.5620 H   0  0
    5.5944    6.2355    0.5108 H   0  0
    3.8550    6.1538    0.0695 H   0  0
    5.1223    4.9729    2.6043 H   0  0
    3.3833    4.8905    2.1618 H   0  0
  1  2  1  0
  2  3  1  0
  3  8  2  0
  3  4  1  0
  4  5  2  0
  5  6  1  0
  6  7  2  0
  6 13  1  0
  7  8  1  0
  8  9  1  0
  9 10  1  0
  9 11  1  0
  9 12  1  0
 13 14  2  0
 13 15  1  0
 15 16  1  0
 16 17  1  0
 16 21  1  0
 17 18  1  0
 18 19  1  0
 19 20  2  0
 19 23  1  0
 21 22  2  0
 21 24  1  0
  1 25  1  0
  1 26  1  0
  1 27  1  0
  2 28  1  0
  4 29  1  0
  5 30  1  0
  7 31  1  0
 15 32  1  0
 16 33  1  0
 17 34  1  0
 17 35  1  0
 18 36  1  0
 18 37  1  0
M  CHG  2  23  -1  24  -1
M  END
> <Name>
ZINC01726296

> <reference>
BDB50021154

> <quality>
0.720

> <status>
decoy

$$$$
ZINC20379178
  SciTegic06061311253D

 52 54  0  0  0  0            999 V2000
    0.6650   10.2646    4.4172 C   0  0
   -0.4211    9.8425    3.4256 C   0  0
    0.0679    8.7450    2.6103 O   0  0
   -0.7723    8.2526    1.6806 C   0  0
   -1.8837    8.7270    1.5539 O   0  0
   -0.3805    7.2335    0.8904 N   0  0
   -1.2825    6.6807   -0.1314 C   0  0
   -1.3412    5.1593    0.0429 C   0  0
    0.0231    4.6149    0.0273 N   0  0
    0.8131    5.1244    1.1560 C   0  0
    0.9602    6.6443    1.0274 C   0  0
    0.0049    3.2428    0.0194 C   0  0
    1.0104    2.2665    0.0046 C   0  0
   -0.0144    1.2125    0.0087 C   0  0
    0.0021   -0.0041    0.0020 O   0  0
   -1.0766    2.2470    0.0178 C   0  0
   -2.2932    2.2640    0.0216 O   0  0
    2.3825    2.2862   -0.0088 N   0  0
    2.9285    0.9225   -0.0218 C   0  0
    4.4571    0.9853   -0.0364 C   0  0
    5.0031   -0.3784   -0.0495 N   0  3
    4.4084   -1.1794   -1.1499 C   0  0
    5.4296   -2.3283   -1.3440 C   0  0
    6.7882   -1.6238   -1.1252 C   0  0
    6.4601   -0.3635   -0.3035 C   0  0
    1.5602   10.5887    3.8661 H   0  0
    0.9221    9.4137    5.0651 H   0  0
    0.2952   11.0960    5.0352 H   0  0
   -1.3157    9.5183    3.9775 H   0  0
   -0.6783   10.6934    2.7776 H   0  0
   -2.2893    7.1051   -0.0039 H   0  0
   -0.8987    6.9218   -1.1337 H   0  0
   -1.9216    4.7167   -0.7800 H   0  0
   -1.8211    4.9180    1.0028 H   0  0
    1.8094    4.6581    1.1483 H   0  0
    0.3020    4.8843    2.1000 H   0  0
    1.4502    7.0441    1.9274 H   0  0
    1.5609    6.8821    0.1371 H   0  0
    2.9537    3.1433   -0.0096 H   0  0
    2.5928    0.3844    0.8769 H   0  0
    2.5754    0.3935   -0.9193 H   0  0
    4.8121    1.5130    0.8611 H   0  0
    4.7935    1.5231   -0.9351 H   0  0
    4.7860   -0.7852    0.8715 H   0  0
    3.4339   -1.5867   -0.8425 H   0  0
    4.3376   -0.5767   -2.0674 H   0  0
    5.3677   -2.7254   -2.3679 H   0  0
    5.2773   -3.1063   -0.5814 H   0  0
    7.2255   -1.3380   -2.0932 H   0  0
    7.4645   -2.2784   -0.5559 H   0  0
    7.0065   -0.3899    0.6508 H   0  0
    6.7295    0.5350   -0.8780 H   0  0
  1  2  1  0
  2  3  1  0
  3  4  1  0
  4  5  2  0
  4  6  1  0
  6 11  1  0
  6  7  1  0
  7  8  1  0
  8  9  1  0
  9 10  1  0
  9 12  1  0
 10 11  1  0
 12 16  1  0
 12 13  2  0
 13 14  1  0
 13 18  1  0
 14 15  2  0
 14 16  1  0
 16 17  2  0
 18 19  1  0
 19 20  1  0
 20 21  1  0
 21 25  1  0
 21 22  1  0
 22 23  1  0
 23 24  1  0
 24 25  1  0
  1 26  1  0
  1 27  1  0
  1 28  1  0
  2 29  1  0
  2 30  1  0
  7 31  1  0
  7 32  1  0
  8 33  1  0
  8 34  1  0
 10 35  1  0
 10 36  1  0
 11 37  1  0
 11 38  1  0
 18 39  1  0
 19 40  1  0
 19 41  1  0
 20 42  1  0
 20 43  1  0
 21 44  1  0
 22 45  1  0
 22 46  1  0
 23 47  1  0
 23 48  1  0
 24 49  1  0
 24 50  1  0
 25 51  1  0
 25 52  1  0
M  CHG  1  21   1
M  END
> <Name>
ZINC20379178

> <reference>
BDB50021154

> <quality>
0.718

> <status>
decoy

$$$$
ZINC29799934
  SciTegic06061311253D

 46 47  0  0  0  0            999 V2000
    0.6759    7.9392   -0.1665 C   0  0
    2.0466    7.7078   -0.8057 C   0  0
    2.2641    6.2667   -0.9898 N   0  3
    3.4610    6.0147   -1.8033 C   0  0
    3.1854    6.4154   -3.2539 C   0  0
    2.3528    5.5781    0.3048 C   0  0
    2.3286    4.0876    0.0836 C   0  0
    3.5127    3.3977   -0.1032 C   0  0
    3.4948    2.0303   -0.3068 C   0  0
    2.2935    1.3487   -0.3239 C   0  0
    1.1029    2.0383   -0.1361 C   0  0
    1.1240    3.4129    0.0630 C   0  0
   -0.1151    1.3513   -0.1533 N   0  0
   -0.1911    0.1018    0.3461 C   0  0
    0.8139   -0.4577    0.7395 O   0  0
   -1.4965   -0.5883    0.4155 C   0  0
   -2.6532    0.0541   -0.0303 C   0  0
   -3.8689   -0.5952    0.0306 C   0  0
   -3.9482   -1.8773    0.5427 C   0  0
   -2.8045   -2.5219    0.9937 C   0  0
   -1.5780   -1.8817    0.9319 C   0  0
   -2.8883   -3.7821    1.4956 O   0  5
   -5.2574   -2.5645    0.6108 N   0  0
   -6.2623   -2.0010    0.2157 O   0  0
   -5.3298   -3.6936    1.0619 O   0  0
    0.6360    7.4353    0.8105 H   0  0
   -0.1086    7.5314   -0.8210 H   0  0
    0.5124    9.0182   -0.0284 H   0  0
    2.8311    8.1156   -0.1513 H   0  0
    2.0855    8.2117   -1.7827 H   0  0
    1.4517    5.8860   -1.4957 H   0  0
    4.3013    6.6076   -1.4130 H   0  0
    3.7159    4.9455   -1.7612 H   0  0
    2.9314    7.4848   -3.2980 H   0  0
    2.3453    5.8232   -3.6457 H   0  0
    4.0813    6.2269   -3.8636 H   0  0
    3.2909    5.8587    0.8060 H   0  0
    1.4993    5.8684    0.9350 H   0  0
    4.4707    3.9381   -0.0898 H   0  0
    4.4383    1.4846   -0.4553 H   0  0
    2.2800    0.2608   -0.4861 H   0  0
    0.1821    3.9633    0.2041 H   0  0
   -0.9541    1.8002   -0.5476 H   0  0
   -2.5952    1.0773   -0.4298 H   0  0
   -4.7781   -0.0914   -0.3294 H   0  0
   -0.6709   -2.3914    1.2889 H   0  0
  1  2  1  0
  2  3  1  0
  3  4  1  0
  3  6  1  0
  4  5  1  0
  6  7  1  0
  7 12  2  0
  7  8  1  0
  8  9  2  0
  9 10  1  0
 10 11  2  0
 11 12  1  0
 11 13  1  0
 13 14  1  0
 14 15  2  0
 14 16  1  0
 16 21  2  0
 16 17  1  0
 17 18  2  0
 18 19  1  0
 19 20  2  0
 19 23  1  0
 20 21  1  0
 20 22  1  0
 23 24  2  0
 23 25  2  0
  1 26  1  0
  1 27  1  0
  1 28  1  0
  2 29  1  0
  2 30  1  0
  3 31  1  0
  4 32  1  0
  4 33  1  0
  5 34  1  0
  5 35  1  0
  5 36  1  0
  6 37  1  0
  6 38  1  0
  8 39  1  0
  9 40  1  0
 10 41  1  0
 12 42  1  0
 13 43  1  0
 17 44  1  0
 18 45  1  0
 21 46  1  0
M  CHG  2   3   1  22  -1
M  END
> <Name>
ZINC29799934

> <reference>
BDB50021154

> <quality>
0.715

> <status>
decoy

$$$$
ZINC27727439
  SciTegic06061311253D

 43 43  0  0  1  0            999 V2000
    4.6945    0.8818    0.5716 C   0  0
    3.5816    1.7473   -0.0228 C   0  0  1  0  0  0
    3.9417    2.1240   -1.4613 C   0  0
    2.3230    0.9976   -0.0148 N   0  0
    1.1468    1.6555    0.0000 C   0  0
    1.1303    2.8708    0.0067 O   0  0
   -0.0111    0.9658    0.0074 N   0  0
   -1.1873    1.6238    0.0165 C   0  0
   -1.2037    2.8360    0.0232 O   0  0
   -2.4820    0.8526    0.0185 C   0  0  2  0  0  0
   -2.5571   -0.0212   -1.2352 C   0  0
   -3.5984    1.7811    0.0288 O   0  0
   -4.7264    1.3712    0.6299 C   0  0
   -4.7792    0.2729    1.1309 O   0  0
   -5.9269    2.2807    0.6800 C   0  0
   -7.0694    1.5772    1.4152 C   0  0
   -8.2365    2.4614    1.4639 N   0  0
   -8.5295    3.3662    2.4484 C   0  0
   -9.6835    3.9647    2.0966 C   0  0
  -10.0889    3.4332    0.9338 N   0  0
   -9.2271    2.5320    0.5488 C   0  0
  -10.3849    5.0197    2.8623 N   0  0
  -11.4307    5.4828    2.4435 O   0  0
   -9.9162    5.4247    3.9110 O   0  0
    5.6400    1.4439    0.5663 H   0  0
    4.8091   -0.0330   -0.0285 H   0  0
    4.4362    0.6106    1.6059 H   0  0
    3.4676    2.6616    0.5781 H   0  0
    4.0556    1.2103   -2.0631 H   0  0
    4.8866    2.6872   -1.4684 H   0  0
    3.1420    2.7463   -1.8893 H   0  0
    2.3370   -0.0323   -0.0205 H   0  0
    0.0029   -0.0641    0.0061 H   0  0
   -2.5273    0.2146    0.9134 H   0  0
   -1.7119   -0.7251   -1.2439 H   0  0
   -2.5121    0.6160   -2.1307 H   0  0
   -3.5020   -0.5844   -1.2344 H   0  0
   -5.6638    3.2064    1.2128 H   0  0
   -6.2462    2.5250   -0.3439 H   0  0
   -6.7522    1.3331    2.4398 H   0  0
   -7.3333    0.6516    0.8827 H   0  0
   -7.9364    3.5660    3.3530 H   0  0
   -9.2961    1.9297   -0.3690 H   0  0
  1  2  1  0
  2  3  1  0
  2  4  1  0
  4  5  1  0
  5  6  2  0
  5  7  1  0
  7  8  1  0
  8  9  2  0
  8 10  1  0
 10 11  1  0
 10 12  1  0
 12 13  1  0
 13 14  2  0
 13 15  1  0
 15 16  1  0
 16 17  1  0
 17 21  1  0
 17 18  1  0
 18 19  2  0
 19 20  1  0
 19 22  1  0
 20 21  2  0
 22 23  2  0
 22 24  2  0
  1 25  1  0
  1 26  1  0
  1 27  1  0
  2 28  1  0
  3 29  1  0
  3 30  1  0
  3 31  1  0
  4 32  1  0
  7 33  1  0
 10 34  1  0
 11 35  1  0
 11 36  1  0
 11 37  1  0
 15 38  1  0
 15 39  1  0
 16 40  1  0
 16 41  1  0
 18 42  1  0
 21 43  1  0
M  END
> <Name>
ZINC27727439

> <reference>
BDB50021154

> <quality>
0.713

> <status>
decoy

$$$$
ZINC16585501
  SciTegic06061311253D

 44 45  0  0  1  0            999 V2000
   -3.6736   -0.7288   -0.9512 C   0  0
   -2.4628    0.0215   -0.6694 O   0  0
   -1.3014   -0.6604   -0.6932 C   0  0
   -1.3000   -1.8493   -0.9424 O   0  0
   -0.0290    0.0377   -0.4160 C   0  0
   -0.0295    1.4017   -0.1299 C   0  0
    1.1731    2.0562    0.1304 C   0  0
    2.3738    1.3439    0.1034 C   0  0
    2.3705   -0.0136   -0.1812 C   0  0
    1.1756   -0.6683   -0.4408 C   0  0
    3.5762   -0.7246   -0.2070 N   0  0
    4.6928   -0.1407   -0.6853 C   0  0
    4.6763    1.0295   -1.0039 O   0  0
    5.9617   -0.9417   -0.8240 C   0  0
    6.5960    0.1506   -2.8925 C   0  0
    7.5178    1.2375   -3.4488 C   0  0
    8.9129    0.8866   -3.1987 N   0  0
    9.2823   -0.0203   -2.2882 C   0  0
   10.4655   -0.2291   -2.1229 O   0  0
    8.2928   -0.7914   -1.4611 C   0  0
    1.1776    3.5024    0.4337 C   0  0
    2.2262    4.0721    0.6605 O   0  0
    0.0189    4.1889    0.4587 O   0  0
    0.0990    5.6063    0.7637 C   0  0
    6.9865   -0.1074   -1.4920 N   0  0
   -3.7124   -1.5432   -0.2128 H   0  0
   -3.5345   -1.1797   -1.9448 H   0  0
   -4.5780   -0.1038   -0.9129 H   0  0
   -0.9768    1.9604   -0.1096 H   0  0
    3.3234    1.8600    0.3081 H   0  0
    1.1768   -1.7449   -0.6665 H   0  0
    3.6099   -1.6940    0.1396 H   0  0
    6.3211   -1.2374    0.1727 H   0  0
    5.7672   -1.8393   -1.4294 H   0  0
    6.7093   -0.7702   -3.4835 H   0  0
    5.5525    0.4967   -2.9278 H   0  0
    7.3551    1.3354   -4.5323 H   0  0
    7.2901    2.1964   -2.9603 H   0  0
    9.6451    1.3587   -3.7481 H   0  0
    8.6497   -0.8518   -0.4224 H   0  0
    8.1843   -1.8064   -1.8709 H   0  0
    0.7695    6.0477    0.0116 H   0  0
    0.5920    5.6850    1.7439 H   0  0
   -0.8861    6.0957    0.7652 H   0  0
  1  2  1  0
  2  3  1  0
  3  4  2  0
  3  5  1  0
  5 10  2  0
  5  6  1  0
  6  7  2  0
  7  8  1  0
  7 21  1  0
  8  9  2  0
  9 10  1  0
  9 11  1  0
 11 12  1  0
 12 13  2  0
 12 14  1  0
 14 25  1  0
 15 16  1  0
 15 25  1  0
 16 17  1  0
 17 18  1  0
 18 19  2  0
 18 20  1  0
 20 25  1  0
 21 22  2  0
 21 23  1  0
 23 24  1  0
  1 26  1  0
  1 27  1  0
  1 28  1  0
  6 29  1  0
  8 30  1  0
 10 31  1  0
 11 32  1  0
 14 33  1  0
 14 34  1  0
 15 35  1  0
 15 36  1  0
 16 37  1  0
 16 38  1  0
 17 39  1  0
 20 40  1  0
 20 41  1  0
 24 42  1  0
 24 43  1  0
 24 44  1  0
M  END
> <Name>
ZINC16585501

> <reference>
BDB50021154

> <quality>
0.704

> <status>
decoy

$$$$
ZINC06528515
  SciTegic06061311253D

 34 35  0  0  1  0            999 V2000
    0.0394   -2.7797   -0.0363 C   0  0
    1.2198   -2.0622   -0.1258 C   0  0
    1.2006   -0.6788   -0.1008 C   0  0
    0.0041   -0.0044    0.0241 C   0  0
   -1.1924   -0.7219    0.1150 C   0  0
   -1.1652   -2.1199    0.0837 C   0  0
   -2.4742   -0.0097    0.2435 C   0  0
   -3.6125   -0.7022    0.4534 C   0  0
   -4.8471   -0.0162    0.5771 C   0  0
   -5.9463   -0.6850    0.7798 N   0  0
   -7.1663   -0.0071    0.9021 N   0  0
   -8.3183   -0.7080    1.1146 C   0  0
   -8.4692   -2.0211    1.2312 N   0  0
   -9.6128   -2.6155    1.4347 C   0  0
   -9.7088   -3.8232    1.5364 O   0  0
  -10.8195   -1.6907    1.5366 C   0  5
   -9.9778   -0.0724    1.3090 S   0  0
  -11.8284   -1.9638    0.4194 C   0  0
  -13.0551   -1.1145    0.6316 C   0  0
  -13.1160   -0.3673    1.5792 O   0  0
   -0.0138    1.4761    0.0558 N   0  0
    1.0333    2.0971    0.0924 O   0  0
   -1.0756    2.0727    0.0401 O   0  0
  -14.0799   -1.1879   -0.2321 O   0  5
    0.0626   -3.8792   -0.0610 H   0  0
    2.1781   -2.5945   -0.2173 H   0  0
    2.1421   -0.1155   -0.1808 H   0  0
   -2.1024   -2.6914    0.1546 H   0  0
   -2.5038    1.0873    0.1683 H   0  0
   -3.5829   -1.7992    0.5286 H   0  0
   -4.8767    1.0808    0.5019 H   0  0
   -7.1940    1.0201    0.8317 H   0  0
  -12.1124   -3.0264    0.4320 H   0  0
  -11.3756   -1.7167   -0.5522 H   0  0
  1  6  2  0
  1  2  1  0
  2  3  2  0
  3  4  1  0
  4  5  2  0
  4 21  1  0
  5  6  1  0
  5  7  1  0
  7  8  2  0
  8  9  1  0
  9 10  2  0
 10 11  1  0
 11 12  1  0
 12 17  1  0
 12 13  2  0
 13 14  1  0
 14 15  2  0
 14 16  1  0
 16 17  1  0
 16 18  1  0
 18 19  1  0
 19 20  2  0
 19 24  1  0
 21 22  2  0
 21 23  2  0
  1 25  1  0
  2 26  1  0
  3 27  1  0
  6 28  1  0
  7 29  1  0
  8 30  1  0
  9 31  1  0
 11 32  1  0
 18 33  1  0
 18 34  1  0
M  CHG  2  16  -1  24  -1
M  END
> <Name>
ZINC06528515

> <reference>
BDB50021154

> <quality>
0.703

> <status>
decoy

$$$$
ZINC23888326
  SciTegic06061311253D

 47 49  0  0  0  0            999 V2000
    1.8222   -0.1961    1.2897 C   0  0
    1.0039    0.2389    2.4244 N   0  0
    1.0604   -0.2457    3.6959 C   0  0
    0.1786    0.3830    4.4221 N   0  0
   -0.4645    1.2836    3.6622 C   0  0
    0.0397    1.2121    2.4074 C   0  0
   -0.3517    1.9775    1.3078 N   0  0
    0.3330    1.5331    0.0865 C   0  0
   -0.0087    2.4821   -1.0639 C   0  0
    0.7044    2.0192   -2.3360 C   0  0
    0.3762    2.9304   -3.4405 N   0  0
   -1.0483    2.8422   -3.7904 C   0  0
   -1.3654    3.8610   -4.8877 C   0  0
   -0.5206    3.5932   -6.0600 N   0  0
    0.9040    3.6814   -5.7101 C   0  0
    1.2210    2.6626   -4.6128 C   0  0
   -0.8297    4.4517   -7.1007 C   0  0
    0.1262    5.2065   -7.6222 N   0  0
   -0.1345    6.0333   -8.6212 C   0  0
   -1.4278    6.1123   -9.1136 C   0  0
   -2.4047    5.3128   -8.5411 C   0  0
   -2.0758    4.5033   -7.5481 N   0  0
   -1.5376    2.1969    4.1171 N   0  0
   -2.0483    2.9754    3.3319 O   0  0
   -1.9097    2.1696    5.2766 O   0  0
    2.2694    0.7488    0.9473 H   0  0
    1.0620   -0.4546    0.5379 H   0  0
    2.5535   -0.9951    1.4815 H   0  0
    1.7376   -1.0363    4.0513 H   0  0
   -1.0305    2.7512    1.3474 H   0  0
    1.4202    1.5368    0.2535 H   0  0
    0.0048    0.5149   -0.1694 H   0  0
   -1.0958    2.4786   -1.2317 H   0  0
    0.3199    3.5008   -0.8103 H   0  0
    0.3762    1.0010   -2.5918 H   0  0
    1.7916    2.0229   -2.1690 H   0  0
   -1.6596    3.0588   -2.9019 H   0  0
   -1.2749    1.8292   -4.1544 H   0  0
   -2.4246    3.7763   -5.1723 H   0  0
   -1.1647    4.8767   -4.5160 H   0  0
    1.5145    3.4643   -6.5990 H   0  0
    1.1316    4.6942   -5.3462 H   0  0
    2.2804    2.7475   -4.3290 H   0  0
    1.0208    1.6476   -4.9866 H   0  0
    0.6654    6.6507   -9.0560 H   0  0
   -1.6735    6.7946   -9.9407 H   0  0
   -3.4409    5.3511   -8.9081 H   0  0
  1  2  1  0
  2  6  1  0
  2  3  1  0
  3  4  2  0
  4  5  1  0
  5  6  2  0
  5 23  1  0
  6  7  1  0
  7  8  1  0
  8  9  1  0
  9 10  1  0
 10 11  1  0
 11 16  1  0
 11 12  1  0
 12 13  1  0
 13 14  1  0
 14 15  1  0
 14 17  1  0
 15 16  1  0
 17 22  2  0
 17 18  1  0
 18 19  2  0
 19 20  1  0
 20 21  2  0
 21 22  1  0
 23 24  2  0
 23 25  2  0
  1 26  1  0
  1 27  1  0
  1 28  1  0
  3 29  1  0
  7 30  1  0
  8 31  1  0
  8 32  1  0
  9 33  1  0
  9 34  1  0
 10 35  1  0
 10 36  1  0
 12 37  1  0
 12 38  1  0
 13 39  1  0
 13 40  1  0
 15 41  1  0
 15 42  1  0
 16 43  1  0
 16 44  1  0
 19 45  1  0
 20 46  1  0
 21 47  1  0
M  END
> <Name>
ZINC23888326

> <reference>
BDB50021154

> <quality>
0.701

> <status>
decoy

$$$$
ZINC31698927
  SciTegic06061311253D

 40 41  0  0  0  0            999 V2000
   -3.7255   -2.9575   -5.6860 C   0  0
   -2.9755   -2.3187   -4.5154 C   0  0
   -3.8391   -2.2459   -3.3793 O   0  0
   -3.3273   -1.7039   -2.2544 C   0  0
   -2.1781   -1.3042   -2.2400 O   0  0
   -4.1268   -1.6004   -1.0920 C   0  0
   -3.6775   -0.9617    0.0097 C   0  0
   -4.4482   -0.8674    1.1332 N   0  0
   -5.6829   -1.3759    1.2315 C   0  0
   -6.2948   -1.2370    2.2726 O   0  0
   -6.2674   -2.0413    0.2156 N   0  0
   -5.5161   -2.2030   -1.0406 C   0  0
   -2.3010   -0.3483    0.0014 C   0  0
   -2.0887    0.3620    1.2231 O   0  0
   -0.8896    0.9775    1.3772 C   0  0
    0.0649    0.8980    0.3688 C   0  0
    1.2724    1.5196    0.5138 C   0  0
    1.5553    2.2359    1.6834 C   0  0
    0.5966    2.3118    2.7014 C   0  0
   -0.6172    1.6818    2.5452 C   0  0
   -1.6342    1.7580    3.6178 N   0  0
   -1.3971    2.3783    4.6389 O   0  0
   -2.7082    1.2004    3.4795 O   0  0
    2.8531    2.9048    1.8420 C   0  0
    3.0960    3.5246    2.8559 O   0  0
   -4.6067   -2.3479   -5.9346 H   0  0
   -4.0487   -3.9711   -5.4064 H   0  0
   -3.0612   -3.0138   -6.5610 H   0  0
   -2.0947   -2.9291   -4.2673 H   0  0
   -2.6523   -1.3051   -4.7949 H   0  0
   -4.0577   -0.3776    1.9508 H   0  0
   -7.2170   -2.4275    0.3155 H   0  0
   -5.4369   -3.2785   -1.2577 H   0  0
   -6.1127   -1.7690   -1.8565 H   0  0
   -1.5461   -1.1424   -0.0964 H   0  0
   -2.2134    0.3473   -0.8463 H   0  0
   -0.1535    0.3324   -0.5490 H   0  0
    2.0227    1.4576   -0.2882 H   0  0
    0.8128    2.8729    3.6225 H   0  0
    3.6048    2.8437    1.0413 H   0  0
  1  2  1  0
  2  3  1  0
  3  4  1  0
  4  5  2  0
  4  6  1  0
  6 12  1  0
  6  7  2  0
  7  8  1  0
  7 13  1  0
  8  9  1  0
  9 10  2  0
  9 11  1  0
 11 12  1  0
 13 14  1  0
 14 15  1  0
 15 20  2  0
 15 16  1  0
 16 17  2  0
 17 18  1  0
 18 19  2  0
 18 24  1  0
 19 20  1  0
 20 21  1  0
 21 22  2  0
 21 23  2  0
 24 25  2  0
  1 26  1  0
  1 27  1  0
  1 28  1  0
  2 29  1  0
  2 30  1  0
  8 31  1  0
 11 32  1  0
 12 33  1  0
 12 34  1  0
 13 35  1  0
 13 36  1  0
 16 37  1  0
 17 38  1  0
 19 39  1  0
 24 40  1  0
M  END
> <Name>
ZINC31698927

> <reference>
BDB50021154

> <quality>
0.701

> <status>
decoy

$$$$
ZINC27796035
  SciTegic06061311253D

 44 45  0  0  1  0            999 V2000
    0.6025    3.6931    1.2271 C   0  0
   -0.8100    3.1071    1.2741 C   0  0
   -0.7288    1.5792    1.2668 C   0  0  2  0  0  0
   -2.1123    0.9679    1.3676 C   0  0
   -3.0287    1.0970    0.5845 O   0  0
   -2.1119    0.2518    2.5093 N   0  0
   -0.9328    0.3250    3.1373 C   0  0
   -0.6904   -0.2375    4.1871 O   0  0
   -0.0455    1.0908    2.4770 N   0  5
   -3.2107   -0.4783    2.9807 N   0  0
   -3.9364   -0.0109    4.0157 C   0  0
   -3.6383    1.0418    4.5390 O   0  0
   -5.1184   -0.7963    4.5228 C   0  0
   -5.7293   -0.0884    5.6337 O   0  0
   -6.8028   -0.6586    6.2032 C   0  0
   -7.2181   -1.7143    5.7874 O   0  0
   -7.4899    0.0179    7.3614 C   0  0
   -8.6568   -0.8218    7.8131 C   0  0
   -9.9973   -0.7609    7.3677 C   0  0
  -10.6472   -1.6717    8.0329 N   0  0
   -9.9252   -2.2599    8.8042 O   0  0
   -8.6657   -1.8054    8.7443 C   0  0
   -7.4912   -2.2926    9.5532 C   0  0
  -10.5611    0.1712    6.3264 C   0  0
   -0.0127    1.0858    0.0080 C   0  0
    1.1093    3.3580    0.3101 H   0  0
    1.1712    3.3527    2.1050 H   0  0
    0.5449    4.7916    1.2323 H   0  0
   -1.3788    3.4475    0.3963 H   0  0
   -1.3159    3.4425    2.1915 H   0  0
   -3.4639   -1.3723    2.5363 H   0  0
   -5.8548   -0.9139    3.7142 H   0  0
   -4.7833   -1.7880    4.8607 H   0  0
   -7.8515    1.0081    7.0471 H   0  0
   -6.7789    0.1341    8.1927 H   0  0
   -7.1249   -1.3647   10.0167 H   0  0
   -6.7582   -2.5455    8.7730 H   0  0
   -7.6874   -3.1058   10.2674 H   0  0
   -9.9012   -0.0182    5.4669 H   0  0
  -10.2622    1.1564    6.7138 H   0  0
  -11.6341    0.0797    6.1020 H   0  0
    1.0030    1.5075   -0.0159 H   0  0
   -0.5673    1.4282   -0.8781 H   0  0
    0.0406   -0.0129    0.0120 H   0  0
  1  2  1  0
  2  3  1  0
  3  9  1  0
  3  4  1  0
  3 25  1  0
  4  5  2  0
  4  6  1  0
  6  7  1  0
  6 10  1  0
  7  8  2  0
  7  9  1  0
 10 11  1  0
 11 12  2  0
 11 13  1  0
 13 14  1  0
 14 15  1  0
 15 16  2  0
 15 17  1  0
 17 18  1  0
 18 22  2  0
 18 19  1  0
 19 20  2  0
 19 24  1  0
 20 21  1  0
 21 22  1  0
 22 23  1  0
  1 26  1  0
  1 27  1  0
  1 28  1  0
  2 29  1  0
  2 30  1  0
 10 31  1  0
 13 32  1  0
 13 33  1  0
 17 34  1  0
 17 35  1  0
 23 36  1  0
 23 37  1  0
 23 38  1  0
 24 39  1  0
 24 40  1  0
 24 41  1  0
 25 42  1  0
 25 43  1  0
 25 44  1  0
M  CHG  1   9  -1
M  END
> <Name>
ZINC27796035

> <reference>
BDB50021154

> <quality>
0.696

> <status>
decoy

$$$$
ZINC26841781
  SciTegic06061311253D

 35 36  0  0  0  0            999 V2000
   -1.1345    5.4681   -3.7187 C   0  0
   -1.4227    4.2087   -3.0280 N   0  0
   -2.0201    3.1199   -3.5613 C   0  0
   -2.1051    2.1971   -2.6429 N   0  0
   -1.5709    2.6577   -1.5016 C   0  0
   -1.1425    3.9169   -1.7203 C   0  0
   -0.3795    4.9657   -0.5663 Cl  0  0
   -1.4563    1.7742    0.0186 S   0  0
   -2.4755    0.7845   -0.0090 O   0  0
   -1.3685    2.7488    1.0490 O   0  0
   -0.0111    0.9658    0.0074 N   0  0
    1.2475    1.7155   -0.0006 C   0  0
    2.4022    0.7774    0.3567 C   0  0
    3.9607    1.7057    0.3468 S   0  0
    4.2823    2.1081   -0.9776 O   0  0
    3.9780    2.6444    1.4135 O   0  0
    5.1212    0.5932    0.7439 N   0  0
    5.3995   -0.5283   -0.1566 C   0  0  2  0  0  0
    5.8037   -1.8605    0.4781 C   0  0
    6.8473   -1.0133   -0.2544 C   0  0
   -0.0551    5.5896   -3.5453 H   0  0
   -1.6251    6.2092   -3.0706 H   0  0
   -1.4288    5.5328   -4.7766 H   0  0
   -2.3758    3.0271   -4.5981 H   0  0
    0.0029   -0.0641    0.0061 H   0  0
    1.4160    2.1387   -1.0018 H   0  0
    1.1955    2.5294    0.7375 H   0  0
    2.2346    0.3542    1.3581 H   0  0
    2.4566   -0.0366   -0.3811 H   0  0
    5.6474    0.6897    1.6241 H   0  0
    4.6343   -0.2118   -0.8807 H   0  0
    5.4776   -2.7146   -0.1336 H   0  0
    5.9075   -1.7720    1.5696 H   0  0
    7.5004   -0.4800    0.4521 H   0  0
    7.0692   -1.4215   -1.2515 H   0  0
  1  2  1  0
  2  6  1  0
  2  3  1  0
  3  4  2  0
  4  5  1  0
  5  6  2  0
  5  8  1  0
  6  7  1  0
  8  9  2  0
  8 10  2  0
  8 11  1  0
 11 12  1  0
 12 13  1  0
 13 14  1  0
 14 15  2  0
 14 16  2  0
 14 17  1  0
 17 18  1  0
 18 20  1  0
 18 19  1  0
 19 20  1  0
  1 21  1  0
  1 22  1  0
  1 23  1  0
  3 24  1  0
 11 25  1  0
 12 26  1  0
 12 27  1  0
 13 28  1  0
 13 29  1  0
 17 30  1  0
 18 31  1  0
 19 32  1  0
 19 33  1  0
 20 34  1  0
 20 35  1  0
M  END
> <Name>
ZINC26841781

> <reference>
BDB50021154

> <quality>
0.695

> <status>
decoy

$$$$
ZINC28196633
  SciTegic06061311253D

 36 37  0  0  0  0            999 V2000
    0.0887    3.8729   -4.8469 C   0  0
   -0.2410    3.1537   -3.6293 O   0  0
   -0.8696    3.8468   -2.6612 C   0  0
   -1.1354    5.0205   -2.8292 O   0  0
   -1.2040    3.2387   -1.5058 N   0  0
   -0.8975    1.8855   -1.3122 N   0  5
   -0.0172    1.4168    0.0098 S   0  0
    0.0021   -0.0041    0.0020 O   0  0
    1.1718    2.1948    0.0027 O   0  0
   -0.9267    1.9002    1.4394 C   0  0
   -0.7172    3.1446    2.0038 C   0  0
   -1.4339    3.5256    3.1228 C   0  0
   -2.3533    2.6585    3.6830 C   0  0
   -2.5594    1.4122    3.1214 C   0  0
   -1.8458    1.0330    1.9999 C   0  0
   -3.2629    3.1419    5.1125 S   0  0
   -3.2813    4.5628    5.1208 O   0  0
   -4.4524    2.3646    5.1191 O   0  0
   -2.3832    2.6722    6.4346 N   0  0
   -1.0755    3.2782    6.6973 C   0  0  2  0  0  0
   -0.0035    2.3947    7.3384 C   0  0
   -0.6785    3.4958    8.1588 C   0  0
    0.7133    4.7260   -4.5435 H   0  0
   -0.8593    4.2704   -5.2384 H   0  0
    0.5994    3.2401   -5.5877 H   0  0
   -1.6849    3.7689   -0.7652 H   0  0
    0.0198    3.8317    1.5625 H   0  0
   -1.2726    4.5187    3.5674 H   0  0
   -3.2912    0.7223    3.5670 H   0  0
   -2.0093    0.0411    1.5534 H   0  0
   -2.7554    1.9540    7.0722 H   0  0
   -1.1261    3.9146    5.8015 H   0  0
    1.0071    2.6914    7.0210 H   0  0
   -0.4002    1.4012    7.5945 H   0  0
   -1.4299    3.0816    8.8472 H   0  0
   -0.0235    4.3722    8.2724 H   0  0
  1  2  1  0
  2  3  1  0
  3  4  2  0
  3  5  1  0
  5  6  1  0
  6  7  1  0
  7  8  2  0
  7  9  2  0
  7 10  1  0
 10 15  2  0
 10 11  1  0
 11 12  2  0
 12 13  1  0
 13 14  2  0
 13 16  1  0
 14 15  1  0
 16 17  2  0
 16 18  2  0
 16 19  1  0
 19 20  1  0
 20 22  1  0
 20 21  1  0
 21 22  1  0
  1 23  1  0
  1 24  1  0
  1 25  1  0
  5 26  1  0
 11 27  1  0
 12 28  1  0
 14 29  1  0
 15 30  1  0
 19 31  1  0
 20 32  1  0
 21 33  1  0
 21 34  1  0
 22 35  1  0
 22 36  1  0
M  CHG  1   6  -1
M  END
> <Name>
ZINC28196633

> <reference>
BDB50021154

> <quality>
0.694

> <status>
decoy

$$$$
ZINC20678724
  SciTegic06061311253D

 48 49  0  0  1  0            999 V2000
   -3.2686    6.3553    2.5688 C   0  0
   -2.9243    5.8992    1.1495 C   0  0
   -2.0372    4.7514    1.2119 O   0  0
   -1.6361    4.2237    0.0385 C   0  0
   -2.0174    4.7094   -1.0081 O   0  0
   -0.7357    3.0582    0.0247 C   0  0
    0.6752    3.0898    0.0117 C   0  0
    1.1033    1.7798    0.0011 C   0  0
   -0.0111    0.9658    0.0074 N   0  0
   -1.1151    1.7271    0.0161 C   0  0
   -2.5334    1.2177    0.0190 C   0  0
    2.4504    1.3453   -0.0141 C   0  0
    3.3510    2.1597   -0.0188 O   0  0
    2.7669   -0.1280   -0.0244 C   0  0
    4.2237   -0.3159   -0.0395 N   0  0
    4.8049    0.1752   -1.2960 C   0  0
    4.5753   -1.7239    0.1883 C   0  0  1  0  0  0
    4.1622   -2.5577   -1.0358 C   0  0
    4.8180   -3.9624   -0.9087 C   0  0
    6.4872   -3.4996   -0.2806 S   0  0
    7.3693   -3.3434   -1.3837 O   0  0
    6.8415   -4.3762    0.7801 O   0  0
    6.1016   -1.8419    0.4165 C   0  0
    1.5462    4.3196    0.0094 C   0  0
   -2.3462    6.6341    3.0994 H   0  0
   -3.7674    5.5361    3.1075 H   0  0
   -3.9407    7.2249    2.5223 H   0  0
   -3.8472    5.6203    0.6198 H   0  0
   -2.4255    6.7183    0.6108 H   0  0
    0.0029   -0.0641    0.0057 H   0  0
   -2.9732    1.7246   -0.8526 H   0  0
   -2.9647    1.7108    0.9027 H   0  0
   -2.6595    0.1250    0.0110 H   0  0
    2.3462   -0.5998    0.8758 H   0  0
    2.3288   -0.5920   -0.9204 H   0  0
    4.5715    1.2450   -1.4014 H   0  0
    4.3549   -0.3757   -2.1350 H   0  0
    5.8950    0.0282   -1.2932 H   0  0
    4.0468   -2.0997    1.0768 H   0  0
    3.0674   -2.6621   -1.0601 H   0  0
    4.5153   -2.0674   -1.9550 H   0  0
    4.2918   -4.5735   -0.1606 H   0  0
    4.9081   -4.4437   -1.8937 H   0  0
    6.3347   -1.8254    1.4914 H   0  0
    6.6377   -1.0651   -0.1485 H   0  0
    1.1790    4.8653    0.8911 H   0  0
    1.1627    4.8735   -0.8601 H   0  0
    2.6344    4.1590   -0.0015 H   0  0
  1  2  1  0
  2  3  1  0
  3  4  1  0
  4  5  2  0
  4  6  1  0
  6 10  2  0
  6  7  1  0
  7  8  2  0
  7 24  1  0
  8  9  1  0
  8 12  1  0
  9 10  1  0
 10 11  1  0
 12 13  2  0
 12 14  1  0
 14 15  1  0
 15 16  1  0
 15 17  1  0
 17 23  1  0
 17 18  1  0
 18 19  1  0
 19 20  1  0
 20 21  2  0
 20 22  2  0
 20 23  1  0
  1 25  1  0
  1 26  1  0
  1 27  1  0
  2 28  1  0
  2 29  1  0
  9 30  1  0
 11 31  1  0
 11 32  1  0
 11 33  1  0
 14 34  1  0
 14 35  1  0
 16 36  1  0
 16 37  1  0
 16 38  1  0
 17 39  1  0
 18 40  1  0
 18 41  1  0
 19 42  1  0
 19 43  1  0
 23 44  1  0
 23 45  1  0
 24 46  1  0
 24 47  1  0
 24 48  1  0
M  END
> <Name>
ZINC20678724

> <reference>
BDB50021154

> <quality>
0.690

> <status>
decoy

$$$$
ZINC26002156
  SciTegic06061311253D

 42 43  0  0  0  0            999 V2000
    1.1318   -2.1931   -0.0200 C   0  0
    1.1498   -0.6863   -0.0126 C   0  0
    2.3368   -0.0184   -0.0203 C   0  0
    2.3178    1.3917   -0.0126 C   0  0
    3.3581    2.0287   -0.0186 O   0  0
    1.1237    2.0216    0.0022 N   0  0
   -0.0156    1.3022    0.0092 C   0  0
    0.0021   -0.0041    0.0020 N   0  0
   -1.3403    2.0206    0.0193 C   0  0
    3.6427   -0.7703   -0.0363 C   0  0
    4.1339   -0.9086   -1.4787 C   0  0
    5.4398   -1.6605   -1.4947 C   0  0
    5.9276   -2.0462   -0.4587 O   0  0
    6.0612   -1.9017   -2.6598 O   0  0
    7.3151   -2.6313   -2.5995 C   0  0
    7.8618   -2.8065   -3.9928 C   0  0
    7.1960   -2.3143   -5.0660 C   0  0
    8.2878   -2.8111   -6.3904 S   0  0
    9.4854   -3.6007   -5.4117 C   0  0
    9.0018   -3.4375   -4.1957 N   0  0
   10.6563   -4.2364   -5.8079 N   0  0
   10.9830   -4.2941   -7.1142 C   0  0
   10.2554   -3.7912   -7.9440 O   0  0
   12.2524   -4.9834   -7.5437 C   0  0
    0.5347   -2.4691   -0.9016 H   0  0
    0.5519   -2.4781    0.8703 H   0  0
    2.1335   -2.6474   -0.0320 H   0  0
    1.0837    3.0508    0.0081 H   0  0
   -1.3270    2.6723   -0.8668 H   0  0
   -1.3147    2.6700    0.9068 H   0  0
   -2.2059    1.3419    0.0245 H   0  0
    4.3902   -0.2198    0.5538 H   0  0
    3.4967   -1.7703    0.3980 H   0  0
    4.2816    0.0906   -1.9143 H   0  0
    3.3870   -1.4594   -2.0693 H   0  0
    7.1445   -3.6191   -2.1465 H   0  0
    8.0380   -2.0686   -1.9906 H   0  0
    6.2459   -1.7616   -5.1096 H   0  0
   11.2743   -4.6634   -5.1032 H   0  0
   12.1742   -6.0049   -7.1432 H   0  0
   13.0562   -4.4760   -6.9902 H   0  0
   12.4176   -4.9698   -8.6311 H   0  0
  1  2  1  0
  2  8  1  0
  2  3  2  0
  3  4  1  0
  3 10  1  0
  4  5  2  0
  4  6  1  0
  6  7  1  0
  7  8  2  0
  7  9  1  0
 10 11  1  0
 11 12  1  0
 12 13  2  0
 12 14  1  0
 14 15  1  0
 15 16  1  0
 16 20  1  0
 16 17  2  0
 17 18  1  0
 18 19  1  0
 19 20  2  0
 19 21  1  0
 21 22  1  0
 22 23  2  0
 22 24  1  0
  1 25  1  0
  1 26  1  0
  1 27  1  0
  6 28  1  0
  9 29  1  0
  9 30  1  0
  9 31  1  0
 10 32  1  0
 10 33  1  0
 11 34  1  0
 11 35  1  0
 15 36  1  0
 15 37  1  0
 17 38  1  0
 21 39  1  0
 24 40  1  0
 24 41  1  0
 24 42  1  0
M  END
> <Name>
ZINC26002156

> <reference>
BDB50021154

> <quality>
0.689

> <status>
decoy

$$$$
ZINC02804613
  SciTegic06061311253D

 45 46  0  0  0  0            999 V2000
   -2.6825    5.6648    1.2265 C   0  0
   -3.2654    4.8892    0.0434 C   0  0
   -2.7192    3.5299    0.0338 N   0  0
   -3.4633    2.3929    0.0318 C   0  0
   -2.5942    1.3476    0.0160 C   0  0
   -1.3013    1.9317    0.0187 C   0  0
   -1.4677    3.2407    0.0262 N   0  0
   -0.0144    1.2118    0.0087 C   0  0
    0.0021   -0.0041    0.0020 O   0  0
    1.1435    1.9015    0.0014 N   0  0
    2.4220    1.1863   -0.0147 C   0  0
    3.5712    2.1963   -0.0202 C   0  0  1  0  0  0
    4.9040    1.4529    0.0888 C   0  0
    3.5395    2.9979   -1.3231 C   0  0
   -2.9092   -0.0191    0.0033 N   0  5
   -4.2418   -0.5541   -0.8215 S   0  0
   -4.2740   -1.9665   -0.6686 O   0  0
   -5.3238    0.2794   -0.4294 O   0  0
   -3.9572   -0.2390   -2.5315 C   0  0
   -4.3065    0.9257   -3.2229 C   0  0
   -3.9310    0.7894   -4.4688 N   0  0
   -3.3391   -0.4721   -4.6121 N   0  0
   -3.3675   -1.0832   -3.4093 C   0  0
   -2.7865   -1.0294   -5.8492 C   0  0
   -1.5875    5.7111    1.1322 H   0  0
   -2.9479    5.1571    2.1656 H   0  0
   -3.0923    6.6856    1.2343 H   0  0
   -4.3603    4.8432    0.1387 H   0  0
   -3.0001    5.3968   -0.8957 H   0  0
   -4.5615    2.3301    0.0412 H   0  0
    1.1295    2.9314    0.0071 H   0  0
    2.4815    0.5595   -0.9167 H   0  0
    2.4978    0.5503    0.8796 H   0  0
    3.4620    2.8806    0.8341 H   0  0
    5.0142    0.7685   -0.7653 H   0  0
    4.9280    0.8764    1.0253 H   0  0
    5.7307    2.1785    0.0849 H   0  0
    2.5817    3.5330   -1.4024 H   0  0
    3.6489    2.3145   -2.1781 H   0  0
    4.3655    3.7243   -1.3277 H   0  0
   -4.8099    1.8044   -2.7934 H   0  0
   -2.9806   -2.0877   -3.1830 H   0  0
   -2.0698   -0.2540   -6.1576 H   0  0
   -3.6338   -0.9438   -6.5455 H   0  0
   -2.3556   -2.0397   -5.7900 H   0  0
  1  2  1  0
  2  3  1  0
  3  7  1  0
  3  4  1  0
  4  5  2  0
  5  6  1  0
  5 15  1  0
  6  7  2  0
  6  8  1  0
  8  9  2  0
  8 10  1  0
 10 11  1  0
 11 12  1  0
 12 13  1  0
 12 14  1  0
 15 16  1  0
 16 17  2  0
 16 18  2  0
 16 19  1  0
 19 23  2  0
 19 20  1  0
 20 21  2  0
 21 22  1  0
 22 23  1  0
 22 24  1  0
  1 25  1  0
  1 26  1  0
  1 27  1  0
  2 28  1  0
  2 29  1  0
  4 30  1  0
 10 31  1  0
 11 32  1  0
 11 33  1  0
 12 34  1  0
 13 35  1  0
 13 36  1  0
 13 37  1  0
 14 38  1  0
 14 39  1  0
 14 40  1  0
 20 41  1  0
 23 42  1  0
 24 43  1  0
 24 44  1  0
 24 45  1  0
M  CHG  1  15  -1
M  END
> <Name>
ZINC02804613

> <reference>
BDB50021154

> <quality>
0.689

> <status>
decoy

$$$$
ZINC20797876
  SciTegic06061311253D

 45 46  0  0  0  0            999 V2000
    1.3416    7.3678    0.0295 C   0  0
    0.6112    6.0496    0.0297 C   0  0
   -0.7709    6.0308    0.0432 C   0  0
   -1.4573    4.8265    0.0426 C   0  0
   -0.7520    3.6339    0.0288 C   0  0
    0.6572    3.6531    0.0154 C   0  0
    1.3299    4.8645    0.0159 C   0  0
    1.0809    2.2370    0.0038 C   0  0
    2.2288    1.8406   -0.0090 O   0  0
   -0.0178    1.4608    0.0101 N   0  0
   -1.1372    2.2068    0.0190 C   0  0
   -2.2739    1.7793    0.0209 O   0  0
    0.0021   -0.0041    0.0020 C   0  0
    0.0228   -0.5218    1.4416 C   0  0
    0.0474   -2.3356    1.4316 S   0  0
   -1.1853   -2.8390    0.9353 O   0  0
    1.2836   -2.8054    0.9119 O   0  0
    0.0684   -2.7697    3.0296 N   0  0
   -1.0777   -2.4600    3.8879 C   0  0
   -0.9810   -3.2726    5.1807 C   0  0
   -2.1303   -2.9621    6.0414 N   0  3
   -2.2018   -3.8889    7.1788 C   0  0
   -2.0823   -1.5676    6.5008 C   0  0
    1.9843    7.3402   -0.8628 H   0  0
    2.0023    7.3305    0.9082 H   0  0
    0.6762    8.2437    0.0411 H   0  0
   -1.3299    6.9781    0.0545 H   0  0
   -2.5572    4.8176    0.0530 H   0  0
    2.4296    4.8856    0.0054 H   0  0
   -0.8961   -0.3803   -0.5095 H   0  0
    0.9000   -0.3568   -0.5266 H   0  0
    0.9211   -0.1464    1.9536 H   0  0
   -0.8750   -0.1710    1.9716 H   0  0
    0.8873   -3.2574    3.4200 H   0  0
   -1.0760   -1.3868    4.1291 H   0  0
   -2.0099   -2.7165    3.3634 H   0  0
   -0.0498   -3.0165    5.7072 H   0  0
   -0.9831   -4.3460    4.9403 H   0  0
   -2.9865   -3.0816    5.4815 H   0  0
   -1.2731   -3.8074    7.7627 H   0  0
   -2.2969   -4.9155    6.7954 H   0  0
   -3.0661   -3.6447    7.8139 H   0  0
   -2.0905   -0.9039    5.6236 H   0  0
   -1.1497   -1.4103    7.0625 H   0  0
   -2.9480   -1.3496    7.1435 H   0  0
  1  2  1  0
  2  7  2  0
  2  3  1  0
  3  4  2  0
  4  5  1  0
  5 11  1  0
  5  6  2  0
  6  7  1  0
  6  8  1  0
  8  9  2  0
  8 10  1  0
 10 11  1  0
 10 13  1  0
 11 12  2  0
 13 14  1  0
 14 15  1  0
 15 16  2  0
 15 17  2  0
 15 18  1  0
 18 19  1  0
 19 20  1  0
 20 21  1  0
 21 22  1  0
 21 23  1  0
  1 24  1  0
  1 25  1  0
  1 26  1  0
  3 27  1  0
  4 28  1  0
  7 29  1  0
 13 30  1  0
 13 31  1  0
 14 32  1  0
 14 33  1  0
 18 34  1  0
 19 35  1  0
 19 36  1  0
 20 37  1  0
 20 38  1  0
 21 39  1  0
 22 40  1  0
 22 41  1  0
 22 42  1  0
 23 43  1  0
 23 44  1  0
 23 45  1  0
M  CHG  1  21   1
M  END
> <Name>
ZINC20797876

> <reference>
BDB50021154

> <quality>
0.689

> <status>
decoy

$$$$
ZINC12529948
  SciTegic06061311253D

 52 53  0  0  1  0            999 V2000
   -0.3117   -0.5394    2.5825 C   0  0
   -1.2635   -0.9640    1.4624 C   0  0  2  0  0  0
   -0.4868   -1.0782    0.1491 C   0  0
   -2.3542    0.0651    1.3130 C   0  0
   -3.6749   -0.1491    1.4499 N   0  0
   -4.2448    1.0127    1.2382 C   0  0
   -3.2657    1.8834    0.9749 O   0  0
   -2.1918    1.3213    1.0227 N   0  0
   -5.7219    1.3084    1.2784 C   0  0  2  0  0  0
   -6.2924    0.9454    2.6655 C   0  0
   -7.6820    0.3407    2.3217 C   0  0  1  0  0  0
   -7.3855   -0.3938    0.9905 C   0  0
   -5.4768   -0.3123   -0.5097 C   0  0
   -8.1154   -0.6021    3.3560 N   0  0
   -9.4158   -0.9416    3.4561 C   0  0
  -10.2273   -0.4666    2.6900 O   0  0
   -9.8617   -1.9113    4.5200 C   0  0
  -11.3734   -2.1231    4.4158 C   0  0  1  0  0  0
  -12.0905   -0.7859    4.6118 C   0  0
  -11.7153   -2.6877    3.0355 C   0  0
  -11.8260   -3.1077    5.4959 C   0  0
  -13.3150   -3.3163    5.3933 C   0  0
  -13.9490   -2.7370    4.5435 O   0  0
   -6.4400    0.4939    0.2847 N   0  0
  -13.9368   -4.1458    6.2461 O   0  5
    0.1351    0.4350    2.3357 H   0  0
    0.4848   -1.2901    2.6925 H   0  0
   -0.8695   -0.4571    3.5270 H   0  0
   -1.7100   -1.9383    1.7103 H   0  0
    0.3095   -1.8293    0.2570 H   0  0
   -0.0401   -0.1043   -0.0998 H   0  0
   -1.1705   -1.3835   -0.6567 H   0  0
   -5.8552    2.3791    1.0641 H   0  0
   -6.4131    1.8510    3.2782 H   0  0
   -5.6588    0.1895    3.1525 H   0  0
   -8.4889    1.0850    2.2524 H   0  0
   -8.3103   -0.5042    0.4053 H   0  0
   -6.9130   -1.3662    1.1933 H   0  0
   -4.9127   -0.9718    0.1662 H   0  0
   -4.7781    0.3630   -1.0252 H   0  0
   -6.0194   -0.9184   -1.2501 H   0  0
   -7.4263   -1.0054    4.0066 H   0  0
   -9.3467   -2.8730    4.3789 H   0  0
   -9.6166   -1.5063    5.5129 H   0  0
  -11.7659   -0.0774    3.8355 H   0  0
  -11.8455   -0.3793    5.6041 H   0  0
  -13.1774   -0.9375    4.5370 H   0  0
  -11.2004   -3.6494    2.8937 H   0  0
  -11.3905   -1.9805    2.2581 H   0  0
  -12.8020   -2.8402    2.9599 H   0  0
  -11.5808   -2.7027    6.4888 H   0  0
  -11.3110   -4.0694    5.3547 H   0  0
  1  2  1  0
  2  3  1  0
  2  4  1  0
  4  8  2  0
  4  5  1  0
  5  6  2  0
  6  7  1  0
  6  9  1  0
  7  8  1  0
  9 10  1  0
  9 24  1  0
 10 11  1  0
 11 12  1  0
 11 14  1  0
 12 24  1  0
 13 24  1  0
 14 15  1  0
 15 16  2  0
 15 17  1  0
 17 18  1  0
 18 19  1  0
 18 20  1  0
 18 21  1  0
 21 22  1  0
 22 23  2  0
 22 25  1  0
  1 26  1  0
  1 27  1  0
  1 28  1  0
  2 29  1  0
  3 30  1  0
  3 31  1  0
  3 32  1  0
  9 33  1  0
 10 34  1  0
 10 35  1  0
 11 36  1  0
 12 37  1  0
 12 38  1  0
 13 39  1  0
 13 40  1  0
 13 41  1  0
 14 42  1  0
 17 43  1  0
 17 44  1  0
 19 45  1  0
 19 46  1  0
 19 47  1  0
 20 48  1  0
 20 49  1  0
 20 50  1  0
 21 51  1  0
 21 52  1  0
M  CHG  1  25  -1
M  END
> <Name>
ZINC12529948

> <reference>
BDB50021154

> <quality>
0.688

> <status>
decoy

$$$$
ZINC25910366
  SciTegic06061311253D

 46 47  0  0  0  0            999 V2000
   -0.4513    1.6250   -0.6960 C   0  0
   -0.2381    0.1757   -0.6759 N   0  0
    0.7242   -0.4359   -1.5956 C   0  0
   -0.9273   -0.5948    0.1889 C   0  0
   -1.7946   -0.1018    0.8848 O   0  0
   -0.6305   -2.0328    0.2911 C   0  0
    0.6965   -2.4732    0.3618 C   0  0
    0.9693   -3.8207    0.4623 C   0  0
   -0.0736   -4.7487    0.4831 C   0  0
   -1.3890   -4.3224    0.4083 C   0  0
   -1.6767   -2.9687    0.3123 C   0  0
   -2.9977   -2.5400    0.2367 N   0  0
   -4.0844   -3.5212    0.1850 C   0  0
   -5.4269   -2.7916    0.1058 C   0  0
   -6.5136   -3.7727    0.0541 N   0  0
   -7.1361   -4.2710    1.1406 C   0  0
   -6.9102   -4.0031    2.3012 O   0  0
   -8.1768   -5.2369    0.6098 C   0  0
   -8.0037   -5.1637   -0.8513 N   0  5
   -7.0146   -4.2805   -1.0778 C   0  0
   -6.6181   -3.9798   -2.1867 O   0  0
    0.2032   -6.0748    0.5774 O   0  0
   -0.9103   -6.9703    0.5940 C   0  0
    2.2592   -4.2480    0.5362 O   0  0
    3.2773   -3.2456    0.5098 C   0  0
   -0.7335    1.8540   -1.7342 H   0  0
    0.5461    2.0589   -0.5317 H   0  0
   -1.1933    1.9841    0.0323 H   0  0
    1.6739    0.0815   -1.3949 H   0  0
    0.3944   -0.1234   -2.5974 H   0  0
    0.8103   -1.5284   -1.5010 H   0  0
    1.5205   -1.7449    0.3372 H   0  0
   -2.2067   -5.0580    0.4250 H   0  0
   -3.2119   -1.5327    0.2171 H   0  0
   -3.9612   -4.1586   -0.7030 H   0  0
   -4.0599   -4.1452    1.0906 H   0  0
   -5.5509   -2.1543    0.9937 H   0  0
   -5.4536   -2.1679   -0.7999 H   0  0
   -7.9662   -6.2557    0.9673 H   0  0
   -9.1859   -4.9008    0.8904 H   0  0
   -1.4752   -6.7786   -0.3302 H   0  0
   -1.5395   -6.6659    1.4434 H   0  0
   -0.6070   -8.0248    0.6720 H   0  0
    3.0665   -2.5686    1.3508 H   0  0
    3.1310   -2.6808   -0.4227 H   0  0
    4.2913   -3.6672    0.5733 H   0  0
  1  2  1  0
  2  3  1  0
  2  4  1  0
  4  5  2  0
  4  6  1  0
  6 11  2  0
  6  7  1  0
  7  8  2  0
  8  9  1  0
  8 24  1  0
  9 10  2  0
  9 22  1  0
 10 11  1  0
 11 12  1  0
 12 13  1  0
 13 14  1  0
 14 15  1  0
 15 20  1  0
 15 16  1  0
 16 17  2  0
 16 18  1  0
 18 19  1  0
 19 20  1  0
 20 21  2  0
 22 23  1  0
 24 25  1  0
  1 26  1  0
  1 27  1  0
  1 28  1  0
  3 29  1  0
  3 30  1  0
  3 31  1  0
  7 32  1  0
 10 33  1  0
 12 34  1  0
 13 35  1  0
 13 36  1  0
 14 37  1  0
 14 38  1  0
 18 39  1  0
 18 40  1  0
 23 41  1  0
 23 42  1  0
 23 43  1  0
 25 44  1  0
 25 45  1  0
 25 46  1  0
M  CHG  1  19  -1
M  END
> <Name>
ZINC25910366

> <reference>
BDB50021154

> <quality>
0.682

> <status>
decoy

$$$$
ZINC10666766
  SciTegic06061311253D

 38 38  0  0  0  0            999 V2000
    5.7542   13.4332    1.3398 C   0  0
    5.8860   12.0146    1.2291 O   0  0
    6.4714   11.5794    0.0004 C   0  0
    6.5628   10.0521   -0.0082 C   0  0
    5.2133    9.4821    0.0016 N   0  0
    5.0466    8.1447   -0.0036 C   0  0
    6.0159    7.4115   -0.0164 O   0  0
    3.8051    7.6202    0.0053 N   0  0
    3.6384    6.2828    0.0002 C   0  0
    4.6053    5.5515   -0.0126 O   0  0
    2.2502    5.6964    0.0102 C   0  0
    2.3370    4.2471    0.0021 O   0  0
    1.1754    3.5648    0.0095 C   0  0
    0.1189    4.1643    0.0224 O   0  0
    1.1863    2.0884    0.0019 C   0  0
    2.3992    1.3956   -0.0138 C   0  0
    2.4022    0.0168   -0.0212 C   0  0
    1.2072   -0.6819   -0.0131 C   0  0
    0.0021   -0.0041    0.0020 C   0  0
   -0.0167    1.3772    0.0096 C   0  0
   -1.5303    2.2272    0.0214 Cl  0  0
    3.6868   -0.7183   -0.0384 N   0  0
    3.6914   -1.9362   -0.0454 O   0  0
    4.7392   -0.1052   -0.0456 O   0  0
    5.1373   13.7757    0.4959 H   0  0
    6.7589   13.8687    1.2356 H   0  0
    5.3001   13.7233    2.2988 H   0  0
    7.4801   12.0069   -0.0981 H   0  0
    5.8476   11.9136   -0.8418 H   0  0
    7.0933    9.7215   -0.9133 H   0  0
    7.1104    9.7114    0.8829 H   0  0
    4.3919   10.1034    0.0125 H   0  0
    2.9837    8.2415    0.0160 H   0  0
    1.7192    6.0263    0.9153 H   0  0
    1.7015    6.0351   -0.8810 H   0  0
    3.3499    1.9489   -0.0202 H   0  0
    1.2164   -1.7818   -0.0187 H   0  0
   -0.9436   -0.5659    0.0080 H   0  0
  1  2  1  0
  2  3  1  0
  3  4  1  0
  4  5  1  0
  5  6  1  0
  6  7  2  0
  6  8  1  0
  8  9  1  0
  9 10  2  0
  9 11  1  0
 11 12  1  0
 12 13  1  0
 13 14  2  0
 13 15  1  0
 15 20  2  0
 15 16  1  0
 16 17  2  0
 17 18  1  0
 17 22  1  0
 18 19  2  0
 19 20  1  0
 20 21  1  0
 22 23  2  0
 22 24  2  0
  1 25  1  0
  1 26  1  0
  1 27  1  0
  3 28  1  0
  3 29  1  0
  4 30  1  0
  4 31  1  0
  5 32  1  0
  8 33  1  0
 11 34  1  0
 11 35  1  0
 16 36  1  0
 18 37  1  0
 19 38  1  0
M  END
> <Name>
ZINC10666766

> <reference>
BDB50021154

> <quality>
0.681

> <status>
decoy

$$$$
ZINC04813389
  SciTegic06061311253D

 48 49  0  0  1  0            999 V2000
   -0.0436    2.2836    1.4856 C   0  0
    0.4756    1.5909    0.2241 C   0  0
   -0.3846    1.8964   -0.8754 O   0  0
   -0.0622    1.3551   -2.0802 C   0  0
    1.0606    0.5522   -2.2029 C   0  0
    1.3837   -0.0021   -3.4273 C   0  0
    0.5954    0.2515   -4.5348 C   0  0
   -0.5227    1.0557   -4.4218 C   0  0
   -0.8564    1.6107   -3.1953 C   0  0
   -1.9915    2.4272   -3.0782 N   0  0
   -1.8688    3.7572   -3.2672 C   0  0
   -0.7910    4.2532   -3.5368 O   0  0
   -3.0763    4.5927   -3.1426 C   0  0
   -3.0283    5.9622   -3.3264 C   0  0
   -4.1701    6.6778   -3.3629 N   0  0
   -4.1192    8.1289   -3.5577 C   0  0
   -5.5413    8.6935   -3.5598 C   0  0
   -6.8320   10.6943   -3.9994 C   0  0
   -4.8528   10.8113   -2.6094 C   0  0
   -4.3364    3.9053   -2.8080 C   0  0
   -5.3741    4.5283   -2.6839 O   0  0
   -4.3080    2.5668   -2.6427 N   0  0
   -3.1717    1.8684   -2.7757 C   0  0
   -3.2138    0.6646   -2.6138 O   0  0
   -5.4741   10.1537   -3.7783 N   0  3
   -1.0610    1.9291    1.7074 H   0  0
   -0.0617    3.3719    1.3265 H   0  0
    0.6181    2.0488    2.3324 H   0  0
    1.4929    1.9462    0.0028 H   0  0
    0.4938    0.5026    0.3831 H   0  0
    1.6948    0.3559   -1.3258 H   0  0
    2.2702   -0.6466   -3.5209 H   0  0
    0.8590   -0.1880   -5.5081 H   0  0
   -1.1480    1.2556   -5.3044 H   0  0
   -3.0552    5.6662   -3.3815 H   0  0
   -2.0584    6.4678   -3.4428 H   0  0
   -3.5439    8.5887   -2.7406 H   0  0
   -3.6347    8.3541   -4.5192 H   0  0
   -6.0215    8.4883   -2.5917 H   0  0
   -6.1217    8.2267   -4.3693 H   0  0
   -7.4551   10.4841   -3.1176 H   0  0
   -7.2762   10.2117   -4.8825 H   0  0
   -6.7774   11.7809   -4.1615 H   0  0
   -3.8366   10.4150   -2.4668 H   0  0
   -5.4542   10.6023   -1.7124 H   0  0
   -4.8048   11.8975   -2.7762 H   0  0
   -5.1795    2.0701   -2.4089 H   0  0
   -4.8994   10.3411   -4.6123 H   0  0
  1  2  1  0
  2  3  1  0
  3  4  1  0
  4  9  2  0
  4  5  1  0
  5  6  2  0
  6  7  1  0
  7  8  2  0
  8  9  1  0
  9 10  1  0
 10 23  1  0
 10 11  1  0
 11 12  2  0
 11 13  1  0
 13 20  1  0
 13 14  1  0
 14 15  2  0
 15 16  1  0
 16 17  1  0
 17 25  1  0
 18 25  1  0
 19 25  1  0
 20 21  2  0
 20 22  1  0
 22 23  1  0
 23 24  2  0
  1 26  1  0
  1 27  1  0
  1 28  1  0
  2 29  1  0
  2 30  1  0
  5 31  1  0
  6 32  1  0
  7 33  1  0
  8 34  1  0
 13 35  1  0
 14 36  1  0
 16 37  1  0
 16 38  1  0
 17 39  1  0
 17 40  1  0
 18 41  1  0
 18 42  1  0
 18 43  1  0
 19 44  1  0
 19 45  1  0
 19 46  1  0
 22 47  1  0
 25 48  1  0
M  CHG  1  25   1
M  END
> <Name>
ZINC04813389

> <reference>
BDB50021154

> <quality>
0.681

> <status>
decoy

$$$$
ZINC31681750
  SciTegic06061311253D

 45 47  0  0  0  0            999 V2000
   -2.2564    2.6179   -7.6652 C   0  0
   -2.0792    2.4905   -6.2864 C   0  0
   -0.9456    1.7194   -6.0951 C   0  0
   -0.4600    1.3843   -7.3412 N   0  0
   -1.2597    1.9325   -8.2788 C   0  0
   -0.3914    1.3402   -4.8513 C   0  0
    0.6092    0.6529   -4.8165 O   0  0
   -1.0423    1.7888   -3.5682 C   0  0
   -0.2903    1.2736   -2.4381 O   0  0
   -0.7416    1.5850   -1.2129 C   0  0
   -1.7322    2.2656   -1.0889 O   0  0
   -0.0127    1.0858    0.0080 C   0  0
   -0.7288    1.5792    1.2668 C   0  0
   -0.0203    1.0939    2.4537 N   0  0
    0.9782    1.7625    3.0669 C   0  0
    1.4422    2.8378    2.7535 O   0  0
    1.3962    0.8886    4.2273 C   0  0  2  0  0  0
    1.1788    1.6193    5.5477 C   0  0
    1.5810    0.7085    6.7105 C   0  0
    3.0521    0.3143    6.5626 C   0  0
    3.2492   -0.4389    5.2455 C   0  0
    2.8537    0.4671    4.0767 C   0  0
    0.5100   -0.2782    4.1322 N   0  5
   -0.2872   -0.0653    3.0677 C   0  0
   -1.1498   -0.8401    2.7035 O   0  0
   -3.0619    3.1755   -8.1655 H   0  0
   -2.7185    2.9208   -5.5015 H   0  0
    0.3752    0.8104   -7.5256 H   0  0
   -1.1252    1.8388   -9.3665 H   0  0
   -1.0558    2.8880   -3.5285 H   0  0
   -2.0733    1.4077   -3.5260 H   0  0
    0.0018   -0.0141    0.0024 H   0  0
    1.0194    1.4662    0.0013 H   0  0
   -0.7433    2.6791    1.2733 H   0  0
   -1.7609    1.1988    1.2757 H   0  0
    0.1176    1.8916    5.6467 H   0  0
    1.7938    2.5311    5.5676 H   0  0
    1.4389    1.2430    7.6614 H   0  0
    0.9567   -0.1971    6.7015 H   0  0
    3.3454   -0.3335    7.4019 H   0  0
    3.6763    1.2200    6.5633 H   0  0
    4.3054   -0.7288    5.1431 H   0  0
    2.6189   -1.3404    5.2394 H   0  0
    2.9813   -0.0795    3.1307 H   0  0
    3.4960    1.3601    4.0727 H   0  0
  1  5  2  0
  1  2  1  0
  2  3  2  0
  3  4  1  0
  3  6  1  0
  4  5  1  0
  6  7  2  0
  6  8  1  0
  8  9  1  0
  9 10  1  0
 10 11  2  0
 10 12  1  0
 12 13  1  0
 13 14  1  0
 14 24  1  0
 14 15  1  0
 15 16  2  0
 15 17  1  0
 17 22  1  0
 17 18  1  0
 17 23  1  0
 18 19  1  0
 19 20  1  0
 20 21  1  0
 21 22  1  0
 23 24  1  0
 24 25  2  0
  1 26  1  0
  2 27  1  0
  4 28  1  0
  5 29  1  0
  8 30  1  0
  8 31  1  0
 12 32  1  0
 12 33  1  0
 13 34  1  0
 13 35  1  0
 18 36  1  0
 18 37  1  0
 19 38  1  0
 19 39  1  0
 20 40  1  0
 20 41  1  0
 21 42  1  0
 21 43  1  0
 22 44  1  0
 22 45  1  0
M  CHG  1  23  -1
M  END
> <Name>
ZINC31681750

> <reference>
BDB50021154

> <quality>
0.678

> <status>
decoy

$$$$
ZINC06233860
  SciTegic06061311253D

 45 47  0  0  0  0            999 V2000
   -6.8118    4.7216   -5.3676 C   0  0
   -6.7523    4.2001   -3.9550 C   0  0
   -7.8471    3.5564   -3.4091 C   0  0
   -7.7922    3.0772   -2.1137 C   0  0
   -6.6423    3.2413   -1.3642 C   0  0
   -5.5493    3.8895   -1.9083 C   0  0
   -5.6027    4.3649   -3.2052 C   0  0
   -6.5823    2.7188    0.0480 C   0  0
   -6.0858    1.3406    0.0382 N   0  0
   -4.7752    0.9369    0.0298 C   0  0
   -3.6044    1.5449    0.0329 N   0  0
   -2.4665    0.8619    0.0184 C   0  0
   -2.4083   -0.4555    0.0110 N   0  0
   -3.5270   -1.1990    0.0123 C   0  0
   -3.4768   -2.4186    0.0058 O   0  0
   -4.8156   -0.4879    0.0222 C   0  0
   -6.0777   -0.8589    0.0262 N   0  0
   -6.8557    0.1664    0.0355 N   0  5
   -1.1873    1.6238    0.0165 C   0  0
   -1.2038    2.8379    0.0232 O   0  0
   -0.0111    0.9658    0.0074 N   0  0
    1.2475    1.7155   -0.0006 C   0  0
    2.4238    0.7372   -0.0171 C   0  0
    3.7382    1.5202   -0.0255 C   0  0
    4.8368    0.6065   -0.0409 O   0  0
    6.1184    1.2385   -0.0497 C   0  0
   -5.9667    4.2435   -5.8846 H   0  0
   -6.5790    5.7936   -5.2865 H   0  0
   -7.7724    4.5362   -5.8705 H   0  0
   -8.7620    3.4255   -4.0056 H   0  0
   -8.6635    2.5653   -1.6792 H   0  0
   -4.6370    4.0270   -1.3092 H   0  0
   -4.7304    4.8743   -3.6406 H   0  0
   -5.9043    3.3480    0.6434 H   0  0
   -7.5885    2.7421    0.4918 H   0  0
    0.0029   -0.0641    0.0061 H   0  0
    1.2890    2.3531   -0.8960 H   0  0
    1.3069    2.3440    0.9002 H   0  0
    2.3832    0.0996    0.8783 H   0  0
    2.3667    0.1085   -0.9179 H   0  0
    3.7796    2.1578   -0.9209 H   0  0
    3.7976    2.1488    0.8753 H   0  0
    6.1805    1.8746    0.8456 H   0  0
    6.1635    1.8842   -0.9391 H   0  0
    6.9333    0.4997   -0.0615 H   0  0
  1  2  1  0
  2  7  2  0
  2  3  1  0
  3  4  2  0
  4  5  1  0
  5  6  2  0
  5  8  1  0
  6  7  1  0
  8  9  1  0
  9 18  1  0
  9 10  1  0
 10 16  1  0
 10 11  2  0
 11 12  1  0
 12 13  2  0
 12 19  1  0
 13 14  1  0
 14 15  2  0
 14 16  1  0
 16 17  2  0
 17 18  1  0
 19 20  2  0
 19 21  1  0
 21 22  1  0
 22 23  1  0
 23 24  1  0
 24 25  1  0
 25 26  1  0
  1 27  1  0
  1 28  1  0
  1 29  1  0
  3 30  1  0
  4 31  1  0
  6 32  1  0
  7 33  1  0
  8 34  1  0
  8 35  1  0
 21 36  1  0
 22 37  1  0
 22 38  1  0
 23 39  1  0
 23 40  1  0
 24 41  1  0
 24 42  1  0
 26 43  1  0
 26 44  1  0
 26 45  1  0
M  CHG  1  18  -1
M  END
> <Name>
ZINC06233860

> <reference>
BDB50021154

> <quality>
0.671

> <status>
decoy

$$$$
ZINC26011732
  SciTegic06061311253D

 46 46  0  0  1  0            999 V2000
    0.4776    1.1225   -4.6715 C   0  0
    1.1490    0.4183   -3.4907 C   0  0
    0.4651    0.7877   -2.2489 N   0  0
    0.8865    0.2838   -1.0720 C   0  0
    1.8317   -0.4754   -1.0411 O   0  0
    0.1830    0.6638    0.2054 C   0  0  2  0  0  0
    0.2650    2.1790    0.4015 C   0  0
    0.8259   -0.0104    1.3361 N   0  0
    0.1278   -0.2486    2.4641 C   0  0
   -1.0354    0.0961    2.5433 O   0  0
    0.7756   -0.9280    3.6033 C   0  0
    2.1106   -1.3298    3.5114 C   0  0
    2.7160   -1.9618    4.5811 C   0  0
    1.9938   -2.2069    5.7461 C   0  0
    0.6620   -1.8123    5.8383 C   0  0
    0.0532   -1.1754    4.7729 C   0  0
   -1.3631   -0.7566    4.8715 N   0  0
   -2.2489   -1.5184    4.5272 O   0  0
   -1.6427    0.3500    5.2968 O   0  0
   -0.0406   -2.0531    6.9776 O   0  0
   -0.6674   -3.3320    7.0952 C   0  0
    2.5900   -2.8328    6.7948 O   0  0
    3.2457   -2.0045    7.7570 C   0  0
    4.0169   -2.3489    4.4939 O   0  0
    4.6974   -2.0659    3.2697 C   0  0
    0.5362    2.2120   -4.5316 H   0  0
   -0.5776    0.8172   -4.7301 H   0  0
    0.9906    0.8456   -5.6043 H   0  0
    1.0896   -0.6711   -3.6313 H   0  0
    2.2042    0.7235   -3.4321 H   0  0
   -0.3377    1.4325   -2.2752 H   0  0
   -0.8721    0.3581    0.1479 H   0  0
   -0.2176    2.6862   -0.4469 H   0  0
    1.3198    2.4857    0.4594 H   0  0
   -0.2483    2.4571    1.3338 H   0  0
    1.8114   -0.3024    1.2690 H   0  0
    2.6793   -1.1433    2.5885 H   0  0
    0.1333   -4.0794    6.9934 H   0  0
   -1.3338   -3.4309    6.2257 H   0  0
   -1.2155   -3.4518    8.0414 H   0  0
    2.4847   -1.3045    8.1323 H   0  0
    3.9963   -1.4216    7.2031 H   0  0
    3.7032   -2.5818    8.5740 H   0  0
    4.6278   -0.9781    3.1216 H   0  0
    4.1158   -2.5527    2.4730 H   0  0
    5.7428   -2.4080    3.2750 H   0  0
  1  2  1  0
  2  3  1  0
  3  4  1  0
  4  5  2  0
  4  6  1  0
  6  7  1  0
  6  8  1  0
  8  9  1  0
  9 10  2  0
  9 11  1  0
 11 16  2  0
 11 12  1  0
 12 13  2  0
 13 14  1  0
 13 24  1  0
 14 15  2  0
 14 22  1  0
 15 16  1  0
 15 20  1  0
 16 17  1  0
 17 18  2  0
 17 19  2  0
 20 21  1  0
 22 23  1  0
 24 25  1  0
  1 26  1  0
  1 27  1  0
  1 28  1  0
  2 29  1  0
  2 30  1  0
  3 31  1  0
  6 32  1  0
  7 33  1  0
  7 34  1  0
  7 35  1  0
  8 36  1  0
 12 37  1  0
 21 38  1  0
 21 39  1  0
 21 40  1  0
 23 41  1  0
 23 42  1  0
 23 43  1  0
 25 44  1  0
 25 45  1  0
 25 46  1  0
M  END
> <Name>
ZINC26011732

> <reference>
BDB50021154

> <quality>
0.671

> <status>
decoy

$$$$
ZINC25384830
  SciTegic06061311253D

 37 39  0  0  1  0            999 V2000
   -8.2559   -2.3143    5.6322 C   0  0
   -9.0675   -3.3215    6.1118 C   0  0
  -10.4253   -3.3106    5.8357 C   0  0
  -10.9747   -2.2863    5.0813 C   0  0
  -10.1711   -1.2726    4.6019 C   0  0
   -8.8051   -1.2794    4.8776 C   0  0
   -7.9370   -0.1911    4.3641 C   0  0
   -6.6025   -0.0740    4.5488 N   0  0
   -6.2569    1.0269    3.9290 C   0  0
   -7.3664    1.5379    3.3863 O   0  0
   -8.3181    0.8313    3.6433 N   0  0
   -4.8682    1.6052    3.8392 C   0  0
   -4.1961    1.0705    2.6684 O   0  0
   -2.9407    1.4887    2.4424 C   0  0
   -2.4208    2.2754    3.1978 O   0  0
   -2.1799    0.9769    1.2465 C   0  0
   -0.7852    1.6054    1.2222 C   0  0
   -0.0127    1.0858    0.0080 C   0  0  2  0  0  0
    1.3988    1.6384   -0.0025 C   0  0
    2.2571    1.4706    0.8371 O   0  0
    1.5013    2.3543   -1.1397 N   0  0
    0.3627    2.3311   -1.8418 C   0  0
    0.2115    2.9041   -2.9029 O   0  0
   -0.5963    1.6031   -1.2417 N   0  5
  -11.2157   -4.3016    6.3029 F   0  0
   -7.1768   -2.3281    5.8451 H   0  0
   -8.6361   -4.1345    6.7143 H   0  0
  -12.0531   -2.2815    4.8644 H   0  0
  -10.6080   -0.4600    4.0028 H   0  0
   -4.9315    2.7003    3.7568 H   0  0
   -4.2993    1.3376    4.7418 H   0  0
   -2.0873   -0.1173    1.3114 H   0  0
   -2.7183    1.2454    0.3256 H   0  0
   -0.2448    1.3370    2.1419 H   0  0
   -0.8770    2.6996    1.1569 H   0  0
   -0.0440   -0.0119    0.0722 H   0  0
    2.3513    2.8572   -1.4322 H   0  0
  1  6  2  0
  1  2  1  0
  2  3  2  0
  3  4  1  0
  3 25  1  0
  4  5  2  0
  5  6  1  0
  6  7  1  0
  7 11  2  0
  7  8  1  0
  8  9  2  0
  9 10  1  0
  9 12  1  0
 10 11  1  0
 12 13  1  0
 13 14  1  0
 14 15  2  0
 14 16  1  0
 16 17  1  0
 17 18  1  0
 18 24  1  0
 18 19  1  0
 19 20  2  0
 19 21  1  0
 21 22  1  0
 22 23  2  0
 22 24  1  0
  1 26  1  0
  2 27  1  0
  4 28  1  0
  5 29  1  0
 12 30  1  0
 12 31  1  0
 16 32  1  0
 16 33  1  0
 17 34  1  0
 17 35  1  0
 18 36  1  0
 21 37  1  0
M  CHG  1  24  -1
M  END
> <Name>
ZINC25384830

> <reference>
BDB50021154

> <quality>
0.671

> <status>
decoy

$$$$
ZINC22858524
  SciTegic06061311253D

 39 40  0  0  1  0            999 V2000
    0.1899    4.1113   -0.6313 C   0  0
   -1.1144    3.4626   -0.8214 N   0  3
   -1.2293    2.8974   -2.1724 C   0  0
   -1.3444    2.4334    0.2012 C   0  0  2  0  0  0
   -1.3199    3.0783    1.5884 C   0  0
   -2.2847    4.1799    1.6320 N   0  0
   -2.3653    4.9622    2.7265 C   0  0
   -1.6387    4.7540    3.6760 O   0  0
   -3.3485    6.0849    2.7708 C   0  0
   -4.0753    6.2931    1.8212 O   0  5
   -3.4292    6.8672    3.8654 N   0  0
   -4.3429    7.9106    3.9066 C   0  0
   -5.2041    8.2951    2.9840 N   0  0
   -6.0126    9.3158    3.1875 C   0  0
   -5.9345    9.9765    4.3695 C   0  0
   -4.6410    9.0499    5.1827 S   0  0
   -6.7075   11.1432    4.8525 N   0  0
   -7.5604   11.6449    4.1423 O   0  0
   -6.4905   11.6013    5.9600 O   0  0
   -0.2625    1.3880    0.1140 C   0  0
   -0.4549    0.0569    0.0911 C   0  0
    0.8233   -0.5402   -0.0019 C   0  0
    1.7203    0.4618   -0.0303 C   0  0
    1.0569    1.6274    0.0402 O   0  0
    0.2996    4.9138   -1.3756 H   0  0
    0.9837    3.3657   -0.7862 H   0  0
    0.2617    4.5295    0.3836 H   0  0
   -1.8441    4.1819   -0.7162 H   0  0
   -0.4272    2.1589   -2.3182 H   0  0
   -1.1112    3.7070   -2.9076 H   0  0
   -2.2098    2.4155   -2.3003 H   0  0
   -2.3240    1.9621    0.0332 H   0  0
   -1.5869    2.3275    2.3467 H   0  0
   -0.3118    3.4664    1.7958 H   0  0
   -2.9014    4.3565    0.8262 H   0  0
   -6.7340    9.6247    2.4167 H   0  0
   -1.4213   -0.4666    0.1361 H   0  0
    1.0422   -1.6174   -0.0431 H   0  0
    2.8120    0.3461   -0.0995 H   0  0
  1  2  1  0
  2  3  1  0
  2  4  1  0
  4  5  1  0
  4 20  1  0
  5  6  1  0
  6  7  1  0
  7  8  2  0
  7  9  1  0
  9 10  1  0
  9 11  2  0
 11 12  1  0
 12 16  1  0
 12 13  2  0
 13 14  1  0
 14 15  2  0
 15 16  1  0
 15 17  1  0
 17 18  2  0
 17 19  2  0
 20 24  1  0
 20 21  2  0
 21 22  1  0
 22 23  2  0
 23 24  1  0
  1 25  1  0
  1 26  1  0
  1 27  1  0
  2 28  1  0
  3 29  1  0
  3 30  1  0
  3 31  1  0
  4 32  1  0
  5 33  1  0
  5 34  1  0
  6 35  1  0
 14 36  1  0
 21 37  1  0
 22 38  1  0
 23 39  1  0
M  CHG  2   2   1  10  -1
M  END
> <Name>
ZINC22858524

> <reference>
BDB50017129

> <quality>
0.759

> <status>
decoy

$$$$
ZINC22687273
  SciTegic06061311253D

 39 40  0  0  0  0            999 V2000
    4.0944   11.0247    0.5053 C   0  0
    3.6246   10.0210    1.2040 C   0  0
    2.2243    9.5215    0.9576 C   0  0
    2.2620    8.0864    0.6656 N   0  0
    1.1008    7.4099    0.4073 C   0  0
    1.1367    6.0448    0.1296 C   0  0
   -0.0589    5.3483   -0.1365 C   0  0
   -1.1334    5.9104   -0.0082 O   0  0
   -0.0106    3.9346   -0.5715 C   0  0
    1.0759    3.4658   -1.3113 C   0  0
    1.1152    2.1469   -1.7134 C   0  0
    0.0802    1.2891   -1.3847 C   0  0
   -1.0021    1.7489   -0.6561 C   0  0
   -1.0509    3.0647   -0.2433 C   0  0
   -2.1077    0.8261   -0.3141 N   0  0
   -2.0640   -0.3366   -0.6741 O   0  0
   -3.0613    1.2296    0.3274 O   0  0
    2.3400    5.3769    0.1151 N   0  3
    2.5921    4.4771    1.0568 C   0  0
    3.7876    3.7884    1.0746 C   0  0
    4.7331    4.0442    0.0926 C   0  0
    4.4391    4.9937   -0.8821 C   0  0
    3.2170    5.6445   -0.8427 C   0  0
    5.3373    5.2746   -1.8627 O   0  5
   -0.4397    8.2650    0.4257 S   0  5
    3.4668   11.5029   -0.2612 H   0  0
    5.1165   11.3893    0.6851 H   0  0
    4.2522    9.5429    1.9705 H   0  0
    1.6095    9.6970    1.8527 H   0  0
    1.7878   10.0577    0.1020 H   0  0
    3.1625    7.5866    0.6547 H   0  0
    1.8992    4.1466   -1.5732 H   0  0
    1.9711    1.7762   -2.2966 H   0  0
    0.1183    0.2372   -1.7041 H   0  0
   -1.9081    3.4270    0.3432 H   0  0
    1.8387    4.2776    1.8331 H   0  0
    3.9887    3.0443    1.8594 H   0  0
    5.6939    3.5087    0.0841 H   0  0
    2.9717    6.3903   -1.6132 H   0  0
  1  2  2  0
  2  3  1  0
  3  4  1  0
  4  5  1  0
  5  6  2  0
  5 25  1  0
  6  7  1  0
  6 18  1  0
  7  8  2  0
  7  9  1  0
  9 14  2  0
  9 10  1  0
 10 11  2  0
 11 12  1  0
 12 13  2  0
 13 14  1  0
 13 15  1  0
 15 16  2  0
 15 17  2  0
 18 23  2  0
 18 19  1  0
 19 20  2  0
 20 21  1  0
 21 22  2  0
 22 23  1  0
 22 24  1  0
  1 26  1  0
  1 27  1  0
  2 28  1  0
  3 29  1  0
  3 30  1  0
  4 31  1  0
 10 32  1  0
 11 33  1  0
 12 34  1  0
 14 35  1  0
 19 36  1  0
 20 37  1  0
 21 38  1  0
 23 39  1  0
M  CHG  3  18   1  24  -1  25  -1
M  END
> <Name>
ZINC22687273

> <reference>
BDB50017129

> <quality>
0.754

> <status>
decoy

$$$$
ZINC02421149
  SciTegic06061311253D

 46 47  0  0  0  0            999 V2000
   10.9530    1.7731   -3.2440 C   0  0
    9.6126    1.0410   -3.1528 C   0  0
    9.2670    0.8360   -1.7575 O   0  0
    8.1114    0.2027   -1.5026 C   0  0
    7.4117   -0.1682   -2.4152 O   0  0
    7.6865   -0.0458   -0.0782 C   0  0
    6.4005   -0.7474   -0.0675 N   0  0
    6.2657   -2.0869   -0.0739 C   0  0
    7.1604   -2.9050   -0.0891 O   0  0
    4.7794   -2.3722   -0.0584 C   0  0
    4.1507   -1.0413   -0.0432 N   0  0
    5.1771   -0.1232   -0.0549 C   0  0
    2.7941   -0.7666   -0.0266 C   0  0
    2.3715    0.4930   -0.0146 N   0  0
    1.0687    0.7559    0.0013 C   0  0
    0.1896   -0.2419    0.0048 N   0  0
    0.6130   -1.4997   -0.0077 C   0  0
    1.9143   -1.7626   -0.0232 N   0  0
   -0.2820   -2.5144   -0.0042 O   0  0
   -1.6659   -2.1589    0.0132 C   0  0
    0.6285    2.0638    0.0143 N   0  0
   -0.8075    2.3533    0.0318 C   0  0  1  0  0  0
   -1.0422    3.7318    0.6526 C   0  0
   -1.3480    2.3398   -1.3994 C   0  0
    5.0745    1.1956   -0.0520 N   0  0
   11.7347    1.1708   -2.7580 H   0  0
   10.8749    2.7474   -2.7394 H   0  0
   11.2154    1.9287   -4.3008 H   0  0
    8.8315    1.6441   -3.6387 H   0  0
    9.6906    0.0667   -3.6574 H   0  0
    8.4440   -0.6620    0.4283 H   0  0
    7.5837    0.9148    0.4478 H   0  0
    4.5099   -2.9284    0.8516 H   0  0
    4.4898   -2.9173   -0.9689 H   0  0
   -1.8337   -1.5254   -0.8703 H   0  0
   -1.8142   -1.5365    0.9080 H   0  0
   -2.3302   -3.0357    0.0150 H   0  0
    1.3096    2.8364    0.0117 H   0  0
   -1.3284    1.5893    0.6276 H   0  0
   -0.5219    4.4966    0.0573 H   0  0
   -0.6542    3.7425    1.6818 H   0  0
   -2.1203    3.9499    0.6661 H   0  0
   -1.1799    1.3490   -1.8466 H   0  0
   -0.8279    3.1037   -1.9960 H   0  0
   -2.4262    2.5571   -1.3870 H   0  0
    5.9348    1.7620   -0.0594 H   0  0
  1  2  1  0
  2  3  1  0
  3  4  1  0
  4  5  2  0
  4  6  1  0
  6  7  1  0
  7 12  1  0
  7  8  1  0
  8  9  2  0
  8 10  1  0
 10 11  1  0
 11 12  1  0
 11 13  1  0
 12 25  2  0
 13 18  2  0
 13 14  1  0
 14 15  2  0
 15 16  1  0
 15 21  1  0
 16 17  2  0
 17 18  1  0
 17 19  1  0
 19 20  1  0
 21 22  1  0
 22 23  1  0
 22 24  1  0
  1 26  1  0
  1 27  1  0
  1 28  1  0
  2 29  1  0
  2 30  1  0
  6 31  1  0
  6 32  1  0
 10 33  1  0
 10 34  1  0
 20 35  1  0
 20 36  1  0
 20 37  1  0
 21 38  1  0
 22 39  1  0
 23 40  1  0
 23 41  1  0
 23 42  1  0
 24 43  1  0
 24 44  1  0
 24 45  1  0
 25 46  1  0
M  END
> <Name>
ZINC02421149

> <reference>
BDB50017129

> <quality>
0.746

> <status>
decoy

$$$$
ZINC05423142
  SciTegic06061311253D

 37 37  0  0  1  0            999 V2000
    4.8720    0.1059   -0.0434 C   0  0
    3.6125   -0.6423   -0.0354 N   0  0
    2.3998    0.0379   -0.0207 C   0  0
    2.3843    1.4302   -0.0130 C   0  0
    1.1860    2.1061    0.0020 C   0  0
   -0.0169    1.3935    0.0097 C   0  0
    0.0021   -0.0041    0.0020 C   0  0
    1.2040   -0.6744   -0.0131 C   0  0
    1.2253   -2.1813   -0.0209 C   0  0  1  0  0  0
   -0.0869   -2.6663   -0.0105 F   0  0
    1.8802   -2.6324   -1.1718 F   0  0
    1.9024   -2.6439    1.1126 F   0  0
   -1.3035    2.1152    0.0197 C   0  0
   -2.3489    1.4943    0.0213 O   0  0
   -1.3201    3.4629    0.0271 N   0  0
   -2.5978    4.1796    0.0370 C   0  0  1  0  0  0
   -2.4001    5.5660    0.6533 C   0  0
   -2.0072    5.4188    2.1246 C   0  0
   -1.8124    6.7843    2.7316 C   0  0
   -1.9716    7.7737    2.0566 O   0  0
   -3.1032    4.3250   -1.3752 C   0  0
   -2.4619    3.8761   -2.2956 O   0  0
   -1.4621    6.9014    4.0221 O   0  5
   -4.2658    4.9533   -1.6107 O   0  5
    4.8249    0.7524    0.8453 H   0  0
    4.8084    0.7612   -0.9246 H   0  0
    5.7705   -0.5286   -0.0549 H   0  0
    3.6253   -1.6722   -0.0407 H   0  0
    3.3310    1.9903   -0.0189 H   0  0
    1.1744    3.2060    0.0079 H   0  0
   -0.9426   -0.5676    0.0080 H   0  0
   -0.4345    3.9889    0.0258 H   0  0
   -3.3304    3.6148    0.6322 H   0  0
   -1.6029    6.0974    0.1129 H   0  0
   -3.3369    6.1380    0.5802 H   0  0
   -1.0699    4.8479    2.1996 H   0  0
   -2.8043    4.8879    2.6658 H   0  0
  1  2  1  0
  2  3  1  0
  3  8  2  0
  3  4  1  0
  4  5  2  0
  5  6  1  0
  6  7  2  0
  6 13  1  0
  7  8  1  0
  8  9  1  0
  9 10  1  0
  9 11  1  0
  9 12  1  0
 13 14  2  0
 13 15  1  0
 15 16  1  0
 16 17  1  0
 16 21  1  0
 17 18  1  0
 18 19  1  0
 19 20  2  0
 19 23  1  0
 21 22  2  0
 21 24  1  0
  1 25  1  0
  1 26  1  0
  1 27  1  0
  2 28  1  0
  4 29  1  0
  5 30  1  0
  7 31  1  0
 15 32  1  0
 16 33  1  0
 17 34  1  0
 17 35  1  0
 18 36  1  0
 18 37  1  0
M  CHG  2  23  -1  24  -1
M  END
> <Name>
ZINC05423142

> <reference>
BDB50017129

> <quality>
0.728

> <status>
decoy

$$$$
ZINC13282971
  SciTegic06061311253D

 47 48  0  0  1  0            999 V2000
    3.9574    6.2539    3.8664 C   0  0
    4.8362    5.1733    4.4995 C   0  0  1  0  0  0
    4.4926    5.0427    5.9855 C   0  0
    5.3573    3.9476    6.6134 C   0  0
    5.0791    2.6143    5.9162 C   0  0
    5.4253    2.7351    4.4300 C   0  0
    4.5882    3.8421    3.7987 C   0  0  1  0  0  0
    3.1190    3.4910    3.8463 C   0  0
    2.4406    3.3042    4.8336 O   0  0
    2.7220    3.4265    2.5584 N   0  0
    3.7291    3.6938    1.7181 C   0  0
    3.6159    3.7006    0.5081 O   0  0
    4.8818    3.9539    2.3641 N   0  5
    1.3565    3.1094    2.1328 C   0  0
    1.2211    1.6201    1.9472 C   0  0
    2.1682    0.8975    2.1500 O   0  0
    0.0486    1.0961    1.5570 O   0  0
   -0.0089   -0.3461    1.3986 C   0  0
   -1.3930   -0.7484    0.9591 C   0  0
   -2.2433    0.0935    0.7961 O   0  0
   -1.7162   -2.2013    0.7230 C   0  0  1  0  0  0
   -2.2049   -2.8047    1.9735 C   0  0
   -2.5821   -3.2705    2.9385 N   0  0
   -2.7803   -2.3132   -0.3382 C   0  0
   -2.4874   -1.8704   -1.7487 C   0  0
   -3.9298   -2.8002    0.0267 N   0  0
    2.8984    5.9760    3.9730 H   0  0
    4.2049    6.3506    2.7990 H   0  0
    4.1357    7.2147    4.3714 H   0  0
    5.8952    5.4510    4.3923 H   0  0
    4.6876    5.9992    6.4926 H   0  0
    3.4305    4.7786    6.0957 H   0  0
    5.1176    3.8580    7.6832 H   0  0
    6.4198    4.2071    6.4964 H   0  0
    5.6953    1.8258    6.3729 H   0  0
    4.0150    2.3575    6.0245 H   0  0
    5.2120    1.7818    3.9243 H   0  0
    6.4930    2.9763    4.3208 H   0  0
    1.1403    3.6178    1.1816 H   0  0
    0.6450    3.4489    2.9000 H   0  0
    0.2259   -0.8311    2.3576 H   0  0
    0.7223   -0.6612    0.6396 H   0  0
   -0.8101   -2.7292    0.3908 H   0  0
   -1.6016   -2.4505   -2.0469 H   0  0
   -2.1656   -0.8229   -1.6531 H   0  0
   -3.3291   -1.9933   -2.4461 H   0  0
   -4.1201   -3.1004    0.9934 H   0  0
  1  2  1  0
  2  7  1  0
  2  3  1  0
  3  4  1  0
  4  5  1  0
  5  6  1  0
  6  7  1  0
  7 13  1  0
  7  8  1  0
  8  9  2  0
  8 10  1  0
 10 11  1  0
 10 14  1  0
 11 12  2  0
 11 13  1  0
 14 15  1  0
 15 16  2  0
 15 17  1  0
 17 18  1  0
 18 19  1  0
 19 20  2  0
 19 21  1  0
 21 22  1  0
 21 24  1  0
 22 23  3  0
 24 25  1  0
 24 26  2  0
  1 27  1  0
  1 28  1  0
  1 29  1  0
  2 30  1  0
  3 31  1  0
  3 32  1  0
  4 33  1  0
  4 34  1  0
  5 35  1  0
  5 36  1  0
  6 37  1  0
  6 38  1  0
 14 39  1  0
 14 40  1  0
 18 41  1  0
 18 42  1  0
 21 43  1  0
 25 44  1  0
 25 45  1  0
 25 46  1  0
 26 47  1  0
M  CHG  1  13  -1
M  END
> <Name>
ZINC13282971

> <reference>
BDB50017129

> <quality>
0.717

> <status>
decoy

$$$$
ZINC19183631
  SciTegic06061311253D

 43 44  0  0  1  0            999 V2000
   -2.2239   -0.4205    1.3579 C   0  0
   -2.1840    1.1068    1.2764 C   0  0
   -0.7288    1.5792    1.2668 C   0  0  1  0  0  0
   -0.6545    3.0900    1.3651 C   0  0
   -1.1035    3.8979    0.5804 O   0  0
    0.0152    3.3485    2.5056 N   0  0
    0.3707    2.2227    3.1351 C   0  0
    0.9839    2.1999    4.1842 O   0  0
   -0.0264    1.1186    2.4769 N   0  5
    0.3043    4.6369    2.9739 N   0  0
    1.5557    5.1265    2.8704 C   0  0
    2.4315    4.4519    2.3719 O   0  0
    1.8666    6.5124    3.3741 C   0  0
    3.2488    6.8004    3.1539 O   0  0
    3.6933    8.0110    3.5513 C   0  0
    2.9267    8.8001    4.0708 O   0  0
    5.0518    8.3629    3.3636 C   0  0
    5.4971    9.5754    3.7616 C   0  0
    6.9067    9.9406    3.5669 C   0  0
    7.9120    9.1317    2.9872 C   0  0
    9.0267    9.8090    2.9899 N   0  0
    8.7969   11.0611    3.5706 N   0  0
    7.5020   11.1378    3.9215 C   0  0
    9.7993   12.1119    3.7633 C   0  0
   -0.0127    1.0858    0.0080 C   0  0
   -1.7253   -0.7526    2.2804 H   0  0
   -1.7059   -0.8488    0.4872 H   0  0
   -3.2699   -0.7608    1.3648 H   0  0
   -2.6825    1.4380    0.3535 H   0  0
   -2.7020    1.5352    2.1471 H   0  0
   -0.4395    5.2099    3.3973 H   0  0
    1.2493    7.2458    2.8346 H   0  0
    1.6478    6.5702    4.4506 H   0  0
    5.7449    7.6495    2.8938 H   0  0
    4.8040   10.2888    4.2313 H   0  0
    7.7773    8.1103    2.6016 H   0  0
    7.0068   11.9945    4.4020 H   0  0
   10.1986   12.2495    2.7476 H   0  0
   10.5875   11.5893    4.3251 H   0  0
    9.4549   13.0427    4.2377 H   0  0
   -0.5322    1.4793   -0.8782 H   0  0
   -0.0419   -0.0136   -0.0141 H   0  0
    1.0320    1.4303    0.0104 H   0  0
  1  2  1  0
  2  3  1  0
  3  9  1  0
  3  4  1  0
  3 25  1  0
  4  5  2  0
  4  6  1  0
  6  7  1  0
  6 10  1  0
  7  8  2  0
  7  9  1  0
 10 11  1  0
 11 12  2  0
 11 13  1  0
 13 14  1  0
 14 15  1  0
 15 16  2  0
 15 17  1  0
 17 18  2  0
 18 19  1  0
 19 23  2  0
 19 20  1  0
 20 21  2  0
 21 22  1  0
 22 23  1  0
 22 24  1  0
  1 26  1  0
  1 27  1  0
  1 28  1  0
  2 29  1  0
  2 30  1  0
 10 31  1  0
 13 32  1  0
 13 33  1  0
 17 34  1  0
 18 35  1  0
 20 36  1  0
 23 37  1  0
 24 38  1  0
 24 39  1  0
 24 40  1  0
 25 41  1  0
 25 42  1  0
 25 43  1  0
M  CHG  1   9  -1
M  END
> <Name>
ZINC19183631

> <reference>
BDB50017129

> <quality>
0.712

> <status>
decoy

$$$$
ZINC28931061
  SciTegic06061311253D

 42 43  0  0  0  0            999 V2000
   -1.3783    8.2864   -2.4088 C   0  0
   -2.1594    7.2865   -1.6764 N   0  3
   -1.7129    6.0830   -1.2054 C   0  0
   -2.7198    5.4711   -0.6069 N   0  0
   -3.8132    6.2384   -0.6558 C   0  0
   -4.9007    5.9554   -0.1857 O   0  5
   -3.5128    7.3781   -1.3120 N   0  0
   -0.0761    5.4526   -1.3736 S   0  0
   -0.2638    3.8619   -0.5307 C   0  0
    1.0503    3.1244   -0.5512 C   0  0
    2.0184    3.6251   -1.0832 O   0  0
    1.1510    1.9110    0.0266 N   0  0
    2.3457    1.1858   -0.0708 C   0  0
    2.3109   -0.1983   -0.1689 C   0  0
    3.4921   -0.9162   -0.2710 C   0  0
    4.7122   -0.2506   -0.2633 C   0  0
    4.7463    1.1350   -0.1593 C   0  0
    3.5638    1.8516   -0.0635 C   0  0
    5.9395    1.7873   -0.1514 O   0  0
    5.8995    3.2115   -0.0414 C   0  0
    5.8733   -0.9553   -0.3580 O   0  0
    6.4716   -1.3874    0.8657 C   0  0
    3.4576   -2.2719   -0.3730 O   0  0
    2.1691   -2.8897   -0.3747 C   0  0
   -0.9762    7.6984   -3.2470 H   0  0
   -0.5278    8.4574   -1.7325 H   0  0
   -1.9025    9.2042   -2.7136 H   0  0
   -2.6695    4.5407   -0.1678 H   0  0
   -1.0286    3.2613   -1.0449 H   0  0
   -0.5714    4.0331    0.5115 H   0  0
    0.3496    1.5168    0.5398 H   0  0
    1.3455   -0.7256   -0.1656 H   0  0
    3.5905    2.9482    0.0183 H   0  0
    5.3535    3.4348    0.8870 H   0  0
    5.2913    3.5699   -0.8850 H   0  0
    6.9010    3.6666   -0.0418 H   0  0
    5.7145   -1.9958    1.3821 H   0  0
    6.6410   -0.4802    1.4643 H   0  0
    7.4042   -1.9490    0.7084 H   0  0
    1.6139   -2.4447   -1.2135 H   0  0
    1.6762   -2.5796    0.5585 H   0  0
    2.2226   -3.9851   -0.4600 H   0  0
  1  2  1  0
  2  3  2  0
  2  7  1  0
  3  4  1  0
  3  8  1  0
  4  5  1  0
  5  6  1  0
  5  7  2  0
  8  9  1  0
  9 10  1  0
 10 11  2  0
 10 12  1  0
 12 13  1  0
 13 18  2  0
 13 14  1  0
 14 15  2  0
 15 16  1  0
 15 23  1  0
 16 17  2  0
 16 21  1  0
 17 18  1  0
 17 19  1  0
 19 20  1  0
 21 22  1  0
 23 24  1  0
  1 25  1  0
  1 26  1  0
  1 27  1  0
  4 28  1  0
  9 29  1  0
  9 30  1  0
 12 31  1  0
 14 32  1  0
 18 33  1  0
 20 34  1  0
 20 35  1  0
 20 36  1  0
 22 37  1  0
 22 38  1  0
 22 39  1  0
 24 40  1  0
 24 41  1  0
 24 42  1  0
M  CHG  2   2   1   6  -1
M  END
> <Name>
ZINC28931061

> <reference>
BDB50017129

> <quality>
0.705

> <status>
decoy

$$$$
ZINC31672531
  SciTegic06061311253D

 50 51  0  0  1  0            999 V2000
   -9.3722   -3.8763    7.2239 C   0  0
   -8.9916   -3.4329    5.8099 C   0  0  2  0  0  0
   -7.7145   -2.5903    5.8648 C   0  0
   -7.3960   -2.1040    4.5144 N   0  3
   -8.5048   -1.3041    3.9739 C   0  0
   -9.7740   -2.1596    3.9380 C   0  0  2  0  0  0
  -10.0503   -2.6490    5.2531 O   0  0
   -9.5689   -3.3398    2.9862 C   0  0
   -6.1436   -1.3363    4.5131 C   0  0
   -5.7154   -1.0615    3.0702 C   0  0
   -4.4109   -0.2620    3.0688 C   0  0
   -4.0009    0.0012    1.6872 N   0  0
   -2.8723    0.6950    1.4397 C   0  0
   -2.1961    1.1016    2.3608 O   0  0
   -2.4505    0.9657    0.0185 C   0  0
   -1.2014    1.7313    0.0172 N   0  0
   -0.0126    1.0758    0.0080 C   0  0
    1.1545    1.7613    0.0005 C   0  0
    1.1428    3.1632    0.0081 C   0  0
   -0.0526    3.8200    0.0231 C   0  0
   -1.2455    3.0771    0.0305 C   0  0
   -2.3221    3.6521    0.0442 O   0  0
    2.4419    1.0315   -0.0152 N   0  0
    2.4515   -0.1865   -0.0215 O   0  0
    3.4919    1.6488   -0.0219 O   0  0
  -10.2919   -4.4785    7.1848 H   0  0
   -9.5416   -2.9903    7.8534 H   0  0
   -8.5579   -4.4792    7.6521 H   0  0
   -8.8216   -4.3208    5.1832 H   0  0
   -6.8829   -3.2059    6.2383 H   0  0
   -7.8687   -1.7329    6.5364 H   0  0
   -7.2645   -2.9223    3.9029 H   0  0
   -8.2573   -0.9728    2.9546 H   0  0
   -8.6721   -0.4268    4.6161 H   0  0
  -10.6194   -1.5504    3.5856 H   0  0
   -8.7248   -3.9518    3.3368 H   0  0
   -9.3527   -2.9631    1.9756 H   0  0
  -10.4808   -3.9544    2.9604 H   0  0
   -6.2980   -0.3816    5.0373 H   0  0
   -5.3584   -1.9126    5.0243 H   0  0
   -5.5605   -2.0158    2.5455 H   0  0
   -6.4990   -0.4842    2.5576 H   0  0
   -4.5652    0.6926    3.5931 H   0  0
   -3.6258   -0.8384    3.5800 H   0  0
   -4.5752   -0.3440    0.9049 H   0  0
   -2.2956    0.0114   -0.5062 H   0  0
   -3.2341    1.5430   -0.4941 H   0  0
    0.0023   -0.0241    0.0066 H   0  0
    2.0872    3.7272    0.0020 H   0  0
   -0.0826    4.9196    0.0293 H   0  0
  1  2  1  0
  2  7  1  0
  2  3  1  0
  3  4  1  0
  4  5  1  0
  4  9  1  0
  5  6  1  0
  6  7  1  0
  6  8  1  0
  9 10  1  0
 10 11  1  0
 11 12  1  0
 12 13  1  0
 13 14  2  0
 13 15  1  0
 15 16  1  0
 16 21  1  0
 16 17  1  0
 17 18  2  0
 18 19  1  0
 18 23  1  0
 19 20  2  0
 20 21  1  0
 21 22  2  0
 23 24  2  0
 23 25  2  0
  1 26  1  0
  1 27  1  0
  1 28  1  0
  2 29  1  0
  3 30  1  0
  3 31  1  0
  4 32  1  0
  5 33  1  0
  5 34  1  0
  6 35  1  0
  8 36  1  0
  8 37  1  0
  8 38  1  0
  9 39  1  0
  9 40  1  0
 10 41  1  0
 10 42  1  0
 11 43  1  0
 11 44  1  0
 12 45  1  0
 15 46  1  0
 15 47  1  0
 17 48  1  0
 19 49  1  0
 20 50  1  0
M  CHG  1   4   1
M  END
> <Name>
ZINC31672531

> <reference>
BDB50017129

> <quality>
0.704

> <status>
decoy

$$$$
ZINC03899595
  SciTegic06061311253D

 46 46  0  0  1  0            999 V2000
   -0.7192   -9.0177   -6.1104 C   0  0
   -1.4807   -8.5217   -4.8795 C   0  0
   -1.3691   -7.0767   -4.7912 O   0  0
   -1.9862   -6.4798   -3.7593 C   0  0
   -2.5992   -7.1428   -2.9565 O   0  0
   -1.9144   -4.9827   -3.6021 C   0  0
   -2.6837   -4.5691   -2.3741 C   0  0
   -2.0527   -4.4035   -1.2208 C   0  0
   -2.8017   -3.9612    0.0075 C   0  0  1  0  0  0
   -4.2065   -4.5604    0.0177 C   0  0  1  0  0  0
   -4.8786   -4.3217   -1.3098 C   0  0
   -4.1413   -4.3485   -2.4549 C   0  0
   -4.7746   -4.1648   -3.7261 C   0  0
   -5.2769   -4.0191   -4.7345 N   0  0
   -6.2224   -4.0788   -1.3646 N   0  0
   -4.1180   -6.0085    0.2671 C   0  0
   -4.0498   -7.1260    0.4595 N   0  0
   -4.9986   -3.9304    1.0866 C   0  0
   -5.6099   -3.4442    1.9115 N   0  0
   -2.0440   -4.4260    1.2528 C   0  0
   -2.9025   -2.4345    0.0167 C   0  0
   -1.5179   -1.8396    0.0067 C   0  0
   -0.5499   -2.5625   -0.0065 O   0  0
   -1.3601   -0.5067    0.0123 O   0  0
    0.0021   -0.0041    0.0020 C   0  0
   -0.0187    1.5258    0.0104 C   0  0
    0.3409   -8.7371   -6.0247 H   0  0
   -1.1465   -8.5617   -7.0156 H   0  0
   -0.8033  -10.1124   -6.1779 H   0  0
   -2.5407   -8.8025   -4.9662 H   0  0
   -1.0534   -8.9777   -3.9743 H   0  0
   -0.8636   -4.6749   -3.4968 H   0  0
   -2.3513   -4.4985   -4.4879 H   0  0
   -0.9705   -4.5912   -1.1604 H   0  0
   -6.7764   -4.0590   -0.4965 H   0  0
   -6.6808   -3.9158   -2.2724 H   0  0
   -1.0368   -3.9838    1.2597 H   0  0
   -1.9634   -5.5230    1.2489 H   0  0
   -2.5887   -4.1044    2.1527 H   0  0
   -3.4351   -2.1065    0.9215 H   0  0
   -3.4521   -2.0978   -0.8747 H   0  0
    0.5341   -0.3679    0.8934 H   0  0
    0.5179   -0.3581   -0.9028 H   0  0
   -0.5332    1.8816    0.9152 H   0  0
   -0.5503    1.8912   -0.8806 H   0  0
    1.0130    1.9072    0.0026 H   0  0
  1  2  1  0
  2  3  1  0
  3  4  1  0
  4  5  2  0
  4  6  1  0
  6  7  1  0
  7 12  1  0
  7  8  2  0
  8  9  1  0
  9 10  1  0
  9 20  1  0
  9 21  1  0
 10 11  1  0
 10 16  1  0
 10 18  1  0
 11 12  2  0
 11 15  1  0
 12 13  1  0
 13 14  3  0
 16 17  3  0
 18 19  3  0
 21 22  1  0
 22 23  2  0
 22 24  1  0
 24 25  1  0
 25 26  1  0
  1 27  1  0
  1 28  1  0
  1 29  1  0
  2 30  1  0
  2 31  1  0
  6 32  1  0
  6 33  1  0
  8 34  1  0
 15 35  1  0
 15 36  1  0
 20 37  1  0
 20 38  1  0
 20 39  1  0
 21 40  1  0
 21 41  1  0
 25 42  1  0
 25 43  1  0
 26 44  1  0
 26 45  1  0
 26 46  1  0
M  END
> <Name>
ZINC03899595

> <reference>
BDB50017129

> <quality>
0.695

> <status>
decoy

$$$$
ZINC22911940
  SciTegic06061311253D

 50 51  0  0  0  0            999 V2000
    8.1080    1.4617    2.7082 C   0  0
    6.9886    0.6286    2.4000 O   0  0
    6.9696    0.1559    1.0516 C   0  0
    5.7344   -0.7209    0.8358 C   0  0
    4.5228    0.0991    0.9678 N   0  3
    4.3213    0.9365   -0.2230 C   0  0
    3.0972    1.8309   -0.0132 C   0  0
    1.9184    0.9914    0.2423 N   0  0
    2.1198    0.1540    1.4330 C   0  0
    3.3440   -0.7404    1.2233 C   0  0
    0.7067    1.8114    0.3742 C   0  0
   -0.5061    0.9169    0.3888 C   0  0
   -0.3740   -0.2853    0.2982 O   0  0
   -1.7377    1.4533    0.4969 N   0  0
   -2.8684    0.6353    0.3955 C   0  0
   -2.8629   -0.4563   -0.4633 C   0  0
   -3.9788   -1.2641   -0.5579 C   0  0
   -5.1048   -0.9814    0.1938 C   0  0
   -5.1152    0.1073    1.0460 C   0  0
   -4.0004    0.9165    1.1488 C   0  0
   -6.5522    0.4633    2.0015 S   0  0
   -7.2069   -0.7889    2.1520 O   0  0
   -6.0677    1.1684    3.1361 O   0  0
   -7.5448    1.5659    0.9576 C   0  0
    8.0842    2.3177    2.0178 H   0  0
    9.0196    0.8792    2.5089 H   0  0
    8.0827    1.8022    3.7539 H   0  0
    7.8765   -0.4352    0.8562 H   0  0
    6.9351    1.0129    0.3629 H   0  0
    5.7696   -1.1628   -0.1709 H   0  0
    5.7170   -1.5233    1.5881 H   0  0
    4.6504    0.7230    1.7774 H   0  0
    5.2101    1.5640   -0.3852 H   0  0
    4.1594    0.2945   -1.1014 H   0  0
    2.9261    2.4379   -0.9145 H   0  0
    3.2695    2.4927    0.8484 H   0  0
    1.2313   -0.4737    1.5961 H   0  0
    2.2818    0.7968    2.3108 H   0  0
    3.5128   -1.3473    2.1250 H   0  0
    3.1710   -1.4022    0.3619 H   0  0
    0.6386    2.5064   -0.4757 H   0  0
    0.7512    2.3833    1.3128 H   0  0
   -1.8467    2.4654    0.6542 H   0  0
   -1.9706   -0.6771   -1.0674 H   0  0
   -3.9722   -2.1334   -1.2319 H   0  0
   -5.9939   -1.6241    0.1135 H   0  0
   -4.0094    1.7827    1.8267 H   0  0
   -7.8514    1.0739    0.0227 H   0  0
   -7.0172    2.5070    0.7433 H   0  0
   -8.4592    1.8180    1.5147 H   0  0
  1  2  1  0
  2  3  1  0
  3  4  1  0
  4  5  1  0
  5 10  1  0
  5  6  1  0
  6  7  1  0
  7  8  1  0
  8  9  1  0
  8 11  1  0
  9 10  1  0
 11 12  1  0
 12 13  2  0
 12 14  1  0
 14 15  1  0
 15 20  2  0
 15 16  1  0
 16 17  2  0
 17 18  1  0
 18 19  2  0
 19 20  1  0
 19 21  1  0
 21 22  2  0
 21 23  2  0
 21 24  1  0
  1 25  1  0
  1 26  1  0
  1 27  1  0
  3 28  1  0
  3 29  1  0
  4 30  1  0
  4 31  1  0
  5 32  1  0
  6 33  1  0
  6 34  1  0
  7 35  1  0
  7 36  1  0
  9 37  1  0
  9 38  1  0
 10 39  1  0
 10 40  1  0
 11 41  1  0
 11 42  1  0
 14 43  1  0
 16 44  1  0
 17 45  1  0
 18 46  1  0
 20 47  1  0
 24 48  1  0
 24 49  1  0
 24 50  1  0
M  CHG  1   5   1
M  END
> <Name>
ZINC22911940

> <reference>
BDB50017129

> <quality>
0.691

> <status>
decoy

$$$$
ZINC05924432
  SciTegic06061311253D

 43 44  0  0  0  0            999 V2000
   -7.5181    4.8177    0.0971 C   0  0
   -6.8837    3.4275    0.0216 C   0  0
   -5.4374    3.5555    0.0091 O   0  0
   -4.7249    2.4182   -0.0552 C   0  0
   -3.3256    2.4686   -0.0709 C   0  0
   -2.5552    3.6445   -0.0134 C   0  0
   -1.2134    3.2424   -0.0553 C   0  0
    0.0223    3.9133   -0.0445 C   0  0
    1.1780    3.1943   -0.0988 C   0  0
    1.1642    1.7937   -0.1656 C   0  0
   -0.0032    1.0900   -0.1792 C   0  0
   -1.2320    1.7762   -0.1312 C   0  0
   -2.5044    1.3904   -0.1332 N   0  0
    2.3442    1.1210   -0.2186 O   0  0
    2.2757   -0.3048   -0.2862 C   0  0
    2.3712    3.8491   -0.0875 O   0  0
    2.3278    5.2757   -0.0184 C   0  0
   -3.0321    4.9511    0.0576 N   0  0
   -1.9693    6.2151    0.1802 S   0  0
   -2.7901    7.3682    0.3058 O   0  0
   -1.0803    5.8414    1.2239 O   0  0
   -1.0923    6.2424   -1.4075 C   0  0
   -0.0732    7.3835   -1.4077 C   0  0
   -5.3550    1.2326   -0.1045 O   0  5
   -7.2107    5.4101   -0.7773 H   0  0
   -7.1875    5.3233    1.0164 H   0  0
   -8.6138    4.7214    0.1066 H   0  0
   -7.1914    2.8359    0.8965 H   0  0
   -7.2143    2.9218   -0.8977 H   0  0
    0.0555    5.0116    0.0075 H   0  0
    0.0145   -0.0088   -0.2274 H   0  0
    1.6771   -0.5437   -1.1776 H   0  0
    1.7080   -0.6294    0.5983 H   0  0
    3.2684   -0.7770   -0.3263 H   0  0
    1.7646    5.5241    0.8932 H   0  0
    1.7347    5.6092   -0.8827 H   0  0
    3.3286    5.7322   -0.0134 H   0  0
   -4.0459    5.1312    0.0339 H   0  0
   -1.8138    6.3960   -2.2235 H   0  0
   -0.5704    5.2854   -1.5547 H   0  0
    0.6499    7.2309   -0.5930 H   0  0
   -0.5936    8.3414   -1.2608 H   0  0
    0.4590    7.4006   -2.3702 H   0  0
  1  2  1  0
  2  3  1  0
  3  4  1  0
  4  5  2  0
  4 24  1  0
  5 13  1  0
  5  6  1  0
  6  7  2  0
  6 18  1  0
  7 12  1  0
  7  8  1  0
  8  9  2  0
  9 10  1  0
  9 16  1  0
 10 11  2  0
 10 14  1  0
 11 12  1  0
 12 13  2  0
 14 15  1  0
 16 17  1  0
 18 19  1  0
 19 20  2  0
 19 21  2  0
 19 22  1  0
 22 23  1  0
  1 25  1  0
  1 26  1  0
  1 27  1  0
  2 28  1  0
  2 29  1  0
  8 30  1  0
 11 31  1  0
 15 32  1  0
 15 33  1  0
 15 34  1  0
 17 35  1  0
 17 36  1  0
 17 37  1  0
 18 38  1  0
 22 39  1  0
 22 40  1  0
 23 41  1  0
 23 42  1  0
 23 43  1  0
M  CHG  1  24  -1
M  END
> <Name>
ZINC05924432

> <reference>
BDB50017129

> <quality>
0.675

> <status>
decoy

$$$$
ZINC25933449
  SciTegic06061311253D

 51 54  0  0  1  0            999 V2000
   -2.2955   11.8517    0.2277 C   0  0
   -1.2415   12.0327   -0.8664 C   0  0  2  0  0  0
   -1.9230   12.1591   -2.2045 C   0  0
   -1.6861   11.3581   -3.0838 O   0  0
   -2.7959   13.1624   -2.4241 N   0  0
   -3.4584   13.2853   -3.7249 C   0  0  2  0  0  0
   -3.5537   14.6830   -4.3399 C   0  0
   -4.8042   14.0119   -3.7664 C   0  0
   -0.3460   10.8683   -0.8810 N   0  0
    0.4255   10.7815    0.3667 C   0  0
    1.4007    9.6052    0.2796 C   0  0
    0.6486    8.3653    0.0415 N   0  0
   -0.1229    8.4521   -1.2063 C   0  0
   -1.0981    9.6285   -1.1192 C   0  0
    1.5441    7.2009    0.0268 C   0  0
    0.7241    5.9365    0.0274 C   0  0
   -0.4870    5.9992    0.0389 O   0  5
    1.3367    4.7361    0.0152 N   0  0
    0.5819    3.5722    0.0157 C   0  0
   -0.7255    3.4946    0.0278 N   0  0
   -1.0785    2.2574    0.0188 N   0  0
   -0.0184    1.5028    0.0103 C   0  0
    1.0570    2.3131    0.0044 O   0  0
    0.0021   -0.0041    0.0020 C   0  0  2  0  0  0
   -1.3319   -0.7276   -0.1926 C   0  0
   -0.6556   -0.7260    1.1798 C   0  0
   -2.8806   10.9420    0.0277 H   0  0
   -2.9665   12.7233    0.2397 H   0  0
   -1.7987   11.7594    1.2048 H   0  0
   -0.6568   12.9425   -0.6654 H   0  0
   -2.9971   13.8427   -1.6773 H   0  0
   -3.0912   12.3071   -4.0690 H   0  0
   -3.5433   14.6420   -5.4391 H   0  0
   -3.1605   15.4512   -3.6578 H   0  0
   -5.0690   14.4279   -2.7831 H   0  0
   -5.4509   13.6173   -4.5639 H   0  0
    0.9891   11.7144    0.5155 H   0  0
   -0.2598   10.6271    1.2132 H   0  0
    1.9590    9.5193    1.2235 H   0  0
    2.1040    9.7721   -0.5496 H   0  0
   -0.6866    7.5195   -1.3561 H   0  0
    0.5632    8.6068   -2.0521 H   0  0
   -1.6562    9.7122   -2.0634 H   0  0
   -1.8014    9.4607   -0.2902 H   0  0
    2.1873    7.2203    0.9189 H   0  0
    2.1700    7.2309   -0.8773 H   0  0
    0.9881   -0.0455   -0.4838 H   0  0
   -1.1975   -1.6909   -0.7064 H   0  0
   -2.1730   -0.0196   -0.2278 H   0  0
   -1.1414   -0.0177    1.8671 H   0  0
   -0.1646   -1.6881    1.3879 H   0  0
  1  2  1  0
  2  3  1  0
  2  9  1  0
  3  4  2  0
  3  5  1  0
  5  6  1  0
  6  8  1  0
  6  7  1  0
  7  8  1  0
  9 14  1  0
  9 10  1  0
 10 11  1  0
 11 12  1  0
 12 13  1  0
 12 15  1  0
 13 14  1  0
 15 16  1  0
 16 17  1  0
 16 18  2  0
 18 19  1  0
 19 23  1  0
 19 20  2  0
 20 21  1  0
 21 22  2  0
 22 23  1  0
 22 24  1  0
 24 26  1  0
 24 25  1  0
 25 26  1  0
  1 27  1  0
  1 28  1  0
  1 29  1  0
  2 30  1  0
  5 31  1  0
  6 32  1  0
  7 33  1  0
  7 34  1  0
  8 35  1  0
  8 36  1  0
 10 37  1  0
 10 38  1  0
 11 39  1  0
 11 40  1  0
 13 41  1  0
 13 42  1  0
 14 43  1  0
 14 44  1  0
 15 45  1  0
 15 46  1  0
 24 47  1  0
 25 48  1  0
 25 49  1  0
 26 50  1  0
 26 51  1  0
M  CHG  1  17  -1
M  END
> <Name>
ZINC25933449

> <reference>
BDB50017129

> <quality>
0.675

> <status>
decoy

$$$$
ZINC30681952
  SciTegic06061311253D

 49 51  0  0  0  0            999 V2000
    0.4574   -4.4934   -3.3009 C   0  0
    1.5521   -3.7495   -2.6730 N   0  0
    1.5322   -2.2846   -2.6649 C   0  0
    0.8268   -1.7986   -1.4250 C   0  0
    0.3843   -2.5972   -0.6267 O   0  0
    0.6878   -0.4765   -1.2033 N   0  0
    0.0021   -0.0041    0.0020 C   0  0
   -0.0187    1.5258    0.0104 C   0  0
   -0.7348    2.0192    1.2692 C   0  0
   -0.7547    3.4840    1.2773 N   0  0
   -1.7374    4.2331    0.7322 C   0  0
   -2.7335    3.8392    0.1644 O   0  0
   -1.3315    5.6634    0.9805 C   0  0  2  0  0  0
   -2.3849    6.3978    1.8205 C   0  0
   -2.3672    7.8446    1.2623 C   0  0
   -2.1523    7.6255   -0.2567 C   0  0
   -1.1737    6.4325   -0.3333 C   0  0
   -0.0587    5.5640    1.6977 N   0  5
    0.1966    4.2469    1.8311 C   0  0
    1.1810    3.8021    2.3882 O   0  0
    2.6096   -4.4334   -2.0848 C   0  0
    3.5982   -3.7330   -1.3967 C   0  0
    4.5999   -4.3863   -0.8396 N   0  0
    4.6662   -5.7040   -0.9338 C   0  0
    3.6876   -6.4020   -1.6149 C   0  0
    2.6776   -5.7553   -2.1723 N   0  0
    0.4171   -4.1173   -4.3338 H   0  0
   -0.4520   -4.1376   -2.7945 H   0  0
    0.5668   -5.5869   -3.2536 H   0  0
    1.0002   -1.9191   -3.5556 H   0  0
    2.5641   -1.9037   -2.6721 H   0  0
    1.0637    0.2017   -1.8813 H   0  0
   -1.0301   -0.3843    0.0097 H   0  0
    0.5335   -0.3677    0.8939 H   0  0
    1.0132    1.9067    0.0031 H   0  0
   -0.5508    1.8913   -0.8803 H   0  0
   -1.7670    1.6390    1.2769 H   0  0
   -0.2034    1.6555    2.1610 H   0  0
   -2.0928    6.3983    2.8810 H   0  0
   -3.3756    5.9453    1.6666 H   0  0
   -3.3353    8.3347    1.4429 H   0  0
   -1.5241    8.4082    1.6883 H   0  0
   -1.6953    8.5185   -0.7079 H   0  0
   -3.1053    7.3642   -0.7399 H   0  0
   -1.4402    5.7850   -1.1817 H   0  0
   -0.1419    6.8015   -0.4296 H   0  0
    3.5436   -2.6372   -1.3181 H   0  0
    5.5029   -6.2457   -0.4685 H   0  0
    3.7486   -7.4975   -1.6937 H   0  0
  1  2  1  0
  2  3  1  0
  2 21  1  0
  3  4  1  0
  4  5  2  0
  4  6  1  0
  6  7  1  0
  7  8  1  0
  8  9  1  0
  9 10  1  0
 10 19  1  0
 10 11  1  0
 11 12  2  0
 11 13  1  0
 13 17  1  0
 13 14  1  0
 13 18  1  0
 14 15  1  0
 15 16  1  0
 16 17  1  0
 18 19  1  0
 19 20  2  0
 21 26  2  0
 21 22  1  0
 22 23  2  0
 23 24  1  0
 24 25  2  0
 25 26  1  0
  1 27  1  0
  1 28  1  0
  1 29  1  0
  3 30  1  0
  3 31  1  0
  6 32  1  0
  7 33  1  0
  7 34  1  0
  8 35  1  0
  8 36  1  0
  9 37  1  0
  9 38  1  0
 14 39  1  0
 14 40  1  0
 15 41  1  0
 15 42  1  0
 16 43  1  0
 16 44  1  0
 17 45  1  0
 17 46  1  0
 22 47  1  0
 24 48  1  0
 25 49  1  0
M  CHG  1  18  -1
M  END
> <Name>
ZINC30681952

> <reference>
BDB50017129

> <quality>
0.674

> <status>
decoy

$$$$
ZINC13078498
  SciTegic06061311253D

 47 48  0  0  0  0            999 V2000
   -0.4852    1.9452    0.8494 C   0  0
   -1.7112    2.3626    0.0788 C   0  0
   -1.6061    3.3034   -0.9248 C   0  0
   -2.7438    3.6928   -1.6341 C   0  0
   -3.9795    3.1177   -1.3297 C   0  0
   -4.0692    2.1741   -0.3278 C   0  0
   -2.9384    1.7969    0.3752 C   0  0
   -3.0444    0.7656    1.4689 C   0  0
   -5.6272    1.4467    0.0576 S   0  0
   -6.5798    2.0422   -0.8125 O   0  0
   -5.4176    0.0422    0.1110 O   0  0
   -6.0244    1.9246    1.5925 N   0  0
   -6.2402    3.3438    1.8850 C   0  0
   -6.9615    3.4840    3.2271 C   0  0
   -7.1869    4.9661    3.5325 C   0  0
   -9.2424    4.5546    4.7462 C   0  0
   -9.9051    4.6605    6.1223 C   0  0
   -9.8914    6.0256    6.5486 O   0  0
   -8.5797    6.5892    6.6332 C   0  0
   -7.9036    6.5028    5.2623 C   0  0
   -2.6400    4.7041   -2.7059 C   0  0
   -3.6308    5.0373   -3.3246 O   0  0
   -7.8668    5.0865    4.8404 N   0  0
   -1.4476    5.2610   -2.9932 O   0  5
   -0.4249    0.8542    0.7226 H   0  0
   -0.7309    2.1371    1.9043 H   0  0
    0.4352    2.4572    0.5319 H   0  0
   -0.6281    3.7457   -1.1656 H   0  0
   -4.8791    3.4166   -1.8877 H   0  0
   -2.6421    1.2573    2.3669 H   0  0
   -2.3355   -0.0265    1.1861 H   0  0
   -4.0643    0.3825    1.6206 H   0  0
   -6.1197    1.2241    2.3416 H   0  0
   -5.2700    3.8597    1.9352 H   0  0
   -6.8541    3.7938    1.0909 H   0  0
   -7.9321    2.9687    3.1775 H   0  0
   -6.3484    3.0356    4.0227 H   0  0
   -6.2180    5.4853    3.5725 H   0  0
   -7.8160    5.4131    2.7487 H   0  0
   -9.8150    5.1428    4.0140 H   0  0
   -9.2089    3.5006    4.4334 H   0  0
  -10.9447    4.3069    6.0575 H   0  0
   -9.3511    4.0448    6.8462 H   0  0
   -8.6517    7.6429    6.9407 H   0  0
   -7.9853    6.0300    7.3707 H   0  0
   -8.4777    7.0902    4.5305 H   0  0
   -6.8775    6.8930    5.3311 H   0  0
  1  2  1  0
  2  7  2  0
  2  3  1  0
  3  4  2  0
  4  5  1  0
  4 21  1  0
  5  6  2  0
  6  7  1  0
  6  9  1  0
  7  8  1  0
  9 10  2  0
  9 11  2  0
  9 12  1  0
 12 13  1  0
 13 14  1  0
 14 15  1  0
 15 23  1  0
 16 17  1  0
 16 23  1  0
 17 18  1  0
 18 19  1  0
 19 20  1  0
 20 23  1  0
 21 22  2  0
 21 24  1  0
  1 25  1  0
  1 26  1  0
  1 27  1  0
  3 28  1  0
  5 29  1  0
  8 30  1  0
  8 31  1  0
  8 32  1  0
 12 33  1  0
 13 34  1  0
 13 35  1  0
 14 36  1  0
 14 37  1  0
 15 38  1  0
 15 39  1  0
 16 40  1  0
 16 41  1  0
 17 42  1  0
 17 43  1  0
 19 44  1  0
 19 45  1  0
 20 46  1  0
 20 47  1  0
M  CHG  1  24  -1
M  END
> <Name>
ZINC13078498

> <reference>
BDB50017129

> <quality>
0.671

> <status>
decoy

$$$$
ZINC07871440
  SciTegic06061311253D

 40 41  0  0  0  0            999 V2000
    2.3962    0.0301   -0.0211 C   0  0
    2.3801    1.4129   -0.0140 C   0  0
    1.1767    2.0906    0.0021 C   0  0
   -0.0167    1.3829    0.0096 C   0  0
    0.0021   -0.0041    0.0020 C   0  0
    1.2085   -0.6774   -0.0131 C   0  0
   -1.2691   -0.7621    0.0096 N   0  0
   -1.2520   -1.9799    0.0029 O   0  0
   -2.3323   -0.1680    0.0225 O   0  0
   -1.2021    2.0475    0.0189 O   0  0
   -1.1453    3.4753    0.0264 C   0  0
   -2.5450    4.0337    0.0361 C   0  0
   -3.4974    3.2829    0.0365 O   0  0
   -2.7384    5.3675    0.0442 N   0  0
   -4.0991    5.9103    0.0536 C   0  0
   -4.0383    7.4391    0.0616 C   0  0
   -5.3990    7.9819    0.0711 N   0  0
   -5.5924    9.3157    0.0792 C   0  0
   -4.6381   10.0680    0.0788 O   0  0
   -6.9684    9.8646    0.0887 C   0  0
   -7.1708   11.2442    0.0972 C   0  0
   -8.3995   11.7288    0.1057 N   0  0
   -9.4350   10.9080    0.1062 C   0  0
   -9.2370    9.5349    0.0978 C   0  0
   -8.0143    9.0430    0.0837 N   0  0
    3.3556   -0.5078   -0.0331 H   0  0
    3.3265    1.9735   -0.0212 H   0  0
    1.1644    3.1905    0.0090 H   0  0
    1.2240   -1.7773   -0.0188 H   0  0
   -0.6172    3.8271   -0.8721 H   0  0
   -0.6088    3.8164    0.9241 H   0  0
   -1.9295    6.0052    0.0438 H   0  0
   -4.6360    5.5699   -0.8441 H   0  0
   -4.6284    5.5605    0.9522 H   0  0
   -3.5018    7.7802    0.9593 H   0  0
   -3.5103    7.7909   -0.8370 H   0  0
   -6.2079    7.3442    0.0716 H   0  0
   -6.3089   11.9276    0.0968 H   0  0
  -10.4571   11.3146    0.1133 H   0  0
  -10.1021    8.8555    0.1029 H   0  0
  1  6  2  0
  1  2  1  0
  2  3  2  0
  3  4  1  0
  4  5  2  0
  4 10  1  0
  5  6  1  0
  5  7  1  0
  7  8  2  0
  7  9  2  0
 10 11  1  0
 11 12  1  0
 12 13  2  0
 12 14  1  0
 14 15  1  0
 15 16  1  0
 16 17  1  0
 17 18  1  0
 18 19  2  0
 18 20  1  0
 20 25  2  0
 20 21  1  0
 21 22  2  0
 22 23  1  0
 23 24  2  0
 24 25  1  0
  1 26  1  0
  2 27  1  0
  3 28  1  0
  6 29  1  0
 11 30  1  0
 11 31  1  0
 14 32  1  0
 15 33  1  0
 15 34  1  0
 16 35  1  0
 16 36  1  0
 17 37  1  0
 21 38  1  0
 23 39  1  0
 24 40  1  0
M  END
> <Name>
ZINC07871440

> <reference>
BDB50017129

> <quality>
0.668

> <status>
decoy

$$$$
ZINC23581820
  SciTegic06061311253D

 46 46  0  0  1  0            999 V2000
    8.2409   -0.0430    3.2814 C   0  0
    7.0169   -0.9026    2.9593 C   0  0
    6.1091   -0.1519    1.9829 C   0  0
    4.8851   -1.0115    1.6608 C   0  0
    4.0159   -0.2926    0.7259 N   0  0
    4.0883   -0.3561   -0.6213 C   0  0
    4.8680   -1.0060   -1.2854 O   0  0
    3.0004    0.5465   -1.1224 C   0  0
    2.7140    0.7811   -2.2775 O   0  0
    2.4066    1.0426   -0.0153 N   0  0
    3.0209    0.5415    1.0684 C   0  0
    2.7137    0.8068    2.2134 O   0  0
    1.2803    1.9793    0.0005 C   0  0
   -0.0144    1.2081    0.0087 C   0  0
    0.0021   -0.0041    0.0020 O   0  0
   -1.1906    1.8661    0.0178 N   0  0
   -2.3485    1.1764    0.0196 C   0  0
   -2.3320   -0.0388    0.0129 O   0  0
   -3.5247    1.8344    0.0287 N   0  0
   -4.7834    1.0847    0.0306 C   0  0  1  0  0  0
   -5.1504    0.7079    1.4674 C   0  0
   -5.8934    1.9502   -0.5690 C   0  0
   -6.1250    3.0799    0.2749 O   0  0
   -7.1490    3.9578   -0.1972 C   0  0
    7.9157    0.9034    3.7380 H   0  0
    8.7954    0.1689    2.3553 H   0  0
    8.8940   -0.5822    3.9834 H   0  0
    7.3430   -1.8486    2.5025 H   0  0
    6.4623   -1.1145    3.8853 H   0  0
    5.7823    0.7941    2.4393 H   0  0
    6.6617    0.0599    1.0557 H   0  0
    5.2112   -1.9575    1.2039 H   0  0
    4.3305   -1.2235    2.5868 H   0  0
    1.3203    2.6177   -0.8944 H   0  0
    1.3381    2.6073    0.9018 H   0  0
   -1.2046    2.8960    0.0234 H   0  0
   -3.5387    2.8643    0.0343 H   0  0
   -4.6666    0.1704   -0.5698 H   0  0
   -5.2677    1.6216    2.0686 H   0  0
   -4.3530    0.0854    1.8994 H   0  0
   -6.0954    0.1449    1.4696 H   0  0
   -5.5898    2.2957   -1.5682 H   0  0
   -6.8173    1.3588   -0.6506 H   0  0
   -8.0741    3.3697   -0.2879 H   0  0
   -6.8551    4.3010   -1.2001 H   0  0
   -7.2938    4.8116    0.4811 H   0  0
  1  2  1  0
  2  3  1  0
  3  4  1  0
  4  5  1  0
  5 11  1  0
  5  6  1  0
  6  7  2  0
  6  8  1  0
  8  9  2  0
  8 10  1  0
 10 11  1  0
 10 13  1  0
 11 12  2  0
 13 14  1  0
 14 15  2  0
 14 16  1  0
 16 17  1  0
 17 18  2  0
 17 19  1  0
 19 20  1  0
 20 21  1  0
 20 22  1  0
 22 23  1  0
 23 24  1  0
  1 25  1  0
  1 26  1  0
  1 27  1  0
  2 28  1  0
  2 29  1  0
  3 30  1  0
  3 31  1  0
  4 32  1  0
  4 33  1  0
 13 34  1  0
 13 35  1  0
 16 36  1  0
 19 37  1  0
 20 38  1  0
 21 39  1  0
 21 40  1  0
 21 41  1  0
 22 42  1  0
 22 43  1  0
 24 44  1  0
 24 45  1  0
 24 46  1  0
M  END
> <Name>
ZINC23581820

> <reference>
BDB50017129

> <quality>
0.666

> <status>
decoy

$$$$
ZINC04216606
  SciTegic06061311253D

 45 47  0  0  0  0            999 V2000
   -0.2668    5.5990    3.0440 C   0  0
   -1.2311    4.7545    3.6757 O   0  0
   -1.4336    3.5289    3.1239 C   0  0
   -0.7157    3.1446    2.0022 C   0  0
   -0.9267    1.9002    1.4394 C   0  0
   -1.8458    1.0311    1.9986 C   0  0
   -2.5612    1.4043    3.1201 C   0  0
   -2.3588    2.6538    3.6876 C   0  0
   -3.0848    3.0352    4.8265 N   0  0
   -4.0153    2.3121    5.4859 C   0  0
   -4.4363    3.0411    6.4864 N   0  0
   -3.8413    4.1791    6.4993 N   0  0
   -3.0035    4.2545    5.5220 N   0  0
   -0.0172    1.4168    0.0098 S   0  0
    0.0021   -0.0041    0.0020 O   0  0
    1.1718    2.1948    0.0027 O   0  0
   -0.8975    1.8855   -1.3122 N   0  0
   -1.1248    3.3089   -1.5738 C   0  0
   -1.6217    3.4906   -3.0094 C   0  0
   -0.6478    5.7206   -2.9290 C   0  0
   -0.8559    7.0303   -3.7302 C   0  0
   -1.4886    6.5315   -5.0496 C   0  0
   -2.0992    5.1594   -4.7093 C   0  0
   -1.8444    4.9419   -3.2846 N   0  3
   -0.5948    5.7164    2.0006 H   0  0
    0.6795    5.0382    3.0392 H   0  0
   -0.1588    6.5715    3.5465 H   0  0
    0.0221    3.8302    1.5599 H   0  0
   -2.0076    0.0402    1.5493 H   0  0
   -3.2912    0.7107    3.5629 H   0  0
   -4.3558    1.2982    5.2291 H   0  0
   -1.2852    1.1762   -1.9506 H   0  0
   -1.8802    3.6945   -0.8733 H   0  0
   -0.1837    3.8624   -1.4395 H   0  0
   -2.5670    2.9441   -3.1428 H   0  0
   -0.8704    3.0968   -3.7097 H   0  0
   -0.6342    5.9315   -1.8495 H   0  0
    0.2615    5.2050   -3.2716 H   0  0
    0.1119    7.5130   -3.9312 H   0  0
   -1.5548    7.6942   -3.2002 H   0  0
   -0.7126    6.4168   -5.8207 H   0  0
   -2.2787    7.2247   -5.3740 H   0  0
   -3.1828    5.1752   -4.8982 H   0  0
   -1.6084    4.3734   -5.3019 H   0  0
   -2.6533    5.2432   -2.7227 H   0  0
  1  2  1  0
  2  3  1  0
  3  8  2  0
  3  4  1  0
  4  5  2  0
  5  6  1  0
  5 14  1  0
  6  7  2  0
  7  8  1  0
  8  9  1  0
  9 13  1  0
  9 10  1  0
 10 11  2  0
 11 12  1  0
 12 13  2  0
 14 15  2  0
 14 16  2  0
 14 17  1  0
 17 18  1  0
 18 19  1  0
 19 24  1  0
 20 21  1  0
 20 24  1  0
 21 22  1  0
 22 23  1  0
 23 24  1  0
  1 25  1  0
  1 26  1  0
  1 27  1  0
  4 28  1  0
  6 29  1  0
  7 30  1  0
 10 31  1  0
 17 32  1  0
 18 33  1  0
 18 34  1  0
 19 35  1  0
 19 36  1  0
 20 37  1  0
 20 38  1  0
 21 39  1  0
 21 40  1  0
 22 41  1  0
 22 42  1  0
 23 43  1  0
 23 44  1  0
 24 45  1  0
M  CHG  1  24   1
M  END
> <Name>
ZINC04216606

> <reference>
BDB50017129

> <quality>
0.664

> <status>
decoy

$$$$
ZINC27056676
  SciTegic06061311253D

 42 43  0  0  0  0            999 V2000
   -1.4934    2.2319   -3.7439 C   0  0
   -0.5510    1.7117   -2.6566 C   0  0
   -1.1345    2.0336   -1.2793 C   0  0
   -0.0172    1.4168    0.0098 S   0  0
    0.0021   -0.0041    0.0020 O   0  0
    1.1953    2.1578    0.0022 O   0  0
   -0.7508    1.8216    1.4382 N   0  0
   -2.0359    1.2174    1.7986 C   0  0  2  0  0  0
   -3.1741    2.1468    1.3707 C   0  0
   -4.5169    1.4963    1.7179 C   0  0
   -4.5216    1.1548    3.1469 N   0  0
   -3.4224    0.3399    3.6820 C   0  0
   -2.0918    1.0033    3.3129 C   0  0
   -5.5151    1.5813    3.9516 C   0  0
   -5.5073    1.2930    5.1296 O   0  0
   -6.6356    2.4164    3.3876 C   0  0
   -7.8041    2.8283    4.7070 S   0  0
   -8.9741    3.7782    3.7940 C   0  0
  -10.1043    4.3652    4.2863 N   0  0
  -10.6917    4.9894    3.2206 C   0  0
   -9.9439    4.7626    2.1779 N   0  0
   -8.9241    4.0554    2.5118 N   0  5
   -1.6084    3.3210   -3.6407 H   0  0
   -2.4762    1.7486   -3.6408 H   0  0
   -1.0745    2.0008   -4.7344 H   0  0
   -0.4369    0.6226   -2.7604 H   0  0
    0.4318    2.1949   -2.7597 H   0  0
   -1.2485    3.1227   -1.1746 H   0  0
   -2.1169    1.5502   -1.1739 H   0  0
   -0.3036    2.4981    2.0732 H   0  0
   -2.1426    0.2490    1.2879 H   0  0
   -3.1204    2.3194    0.2857 H   0  0
   -3.0837    3.1063    1.9009 H   0  0
   -5.3338    2.2017    1.5054 H   0  0
   -4.6498    0.5820    1.1208 H   0  0
   -3.5101    0.2757    4.7766 H   0  0
   -3.4636   -0.6689    3.2454 H   0  0
   -1.2600    0.3537    3.6229 H   0  0
   -2.0117    1.9735    3.8251 H   0  0
   -6.2238    3.3429    2.9610 H   0  0
   -7.1564    1.8503    2.6012 H   0  0
  -11.6230    5.5745    3.2401 H   0  0
  1  2  1  0
  2  3  1  0
  3  4  1  0
  4  5  2  0
  4  6  2  0
  4  7  1  0
  7  8  1  0
  8 13  1  0
  8  9  1  0
  9 10  1  0
 10 11  1  0
 11 12  1  0
 11 14  1  0
 12 13  1  0
 14 15  2  0
 14 16  1  0
 16 17  1  0
 17 18  1  0
 18 19  2  0
 18 22  1  0
 19 20  1  0
 20 21  2  0
 21 22  1  0
  1 23  1  0
  1 24  1  0
  1 25  1  0
  2 26  1  0
  2 27  1  0
  3 28  1  0
  3 29  1  0
  7 30  1  0
  8 31  1  0
  9 32  1  0
  9 33  1  0
 10 34  1  0
 10 35  1  0
 12 36  1  0
 12 37  1  0
 13 38  1  0
 13 39  1  0
 16 40  1  0
 16 41  1  0
 20 42  1  0
M  CHG  1  22  -1
M  END
> <Name>
ZINC27056676

> <reference>
BDB50017129

> <quality>
0.660

> <status>
decoy

$$$$
ZINC31781600
  SciTegic06061311253D

 43 44  0  0  0  0            999 V2000
   -5.7705    4.5345   10.9775 C   0  0
   -5.1736    4.2053    9.6077 C   0  0
   -6.0404    4.6917    8.5810 O   0  0
   -5.6542    4.4798    7.2965 C   0  0
   -4.4640    3.8159    7.0316 C   0  0
   -4.0703    3.5937    5.7299 C   0  0
   -4.8642    4.0462    4.6731 C   0  0
   -6.0624    4.7140    4.9395 C   0  0
   -6.4539    4.9288    6.2467 C   0  0
   -7.6193    5.5788    6.5094 O   0  0
   -8.3884    6.0116    5.3855 C   0  0
   -4.4411    3.8140    3.2782 C   0  0
   -5.1354    4.2040    2.3594 O   0  0
   -3.2851    3.1698    3.0229 N   0  0
   -2.8836    2.9495    1.6989 N   0  0
   -1.7276    2.3052    1.4436 C   0  0
   -1.0350    1.9162    2.3601 O   0  0
   -1.2957    2.0682    0.0194 C   0  0
   -0.0163    1.3544    0.0095 N   0  0
    0.0021   -0.0041    0.0020 C   0  0
    1.1984   -0.6512   -0.0129 C   0  0
    2.3774    0.1001   -0.0202 C   0  0
    2.3159    1.4162   -0.0125 N   0  0
    1.1386    2.0459    0.0022 C   0  0
    1.1093    3.2651    0.0090 O   0  0
   -6.7563    4.0559   11.0736 H   0  0
   -5.8813    5.6243   11.0780 H   0  0
   -5.1037    4.1603   11.7683 H   0  0
   -4.1881    4.6845    9.5123 H   0  0
   -5.0627    3.1155    9.5071 H   0  0
   -3.8338    3.4665    7.8627 H   0  0
   -3.1310    3.0601    5.5229 H   0  0
   -6.6924    5.0678    4.1101 H   0  0
   -8.5971    5.1115    4.7886 H   0  0
   -7.7301    6.6641    4.7931 H   0  0
   -9.3148    6.5280    5.6773 H   0  0
   -2.6969    2.8395    3.8012 H   0  0
   -3.4718    3.2799    0.9206 H   0  0
   -2.0556    1.4649   -0.4988 H   0  0
   -1.1802    3.0334   -0.4954 H   0  0
   -0.9389   -0.5737    0.0079 H   0  0
    1.2377   -1.7505   -0.0191 H   0  0
    3.3539   -0.4062   -0.0323 H   0  0
  1  2  1  0
  2  3  1  0
  3  4  1  0
  4  9  2  0
  4  5  1  0
  5  6  2  0
  6  7  1  0
  7  8  2  0
  7 12  1  0
  8  9  1  0
  9 10  1  0
 10 11  1  0
 12 13  2  0
 12 14  1  0
 14 15  1  0
 15 16  1  0
 16 17  2  0
 16 18  1  0
 18 19  1  0
 19 24  1  0
 19 20  1  0
 20 21  2  0
 21 22  1  0
 22 23  2  0
 23 24  1  0
 24 25  2  0
  1 26  1  0
  1 27  1  0
  1 28  1  0
  2 29  1  0
  2 30  1  0
  5 31  1  0
  6 32  1  0
  8 33  1  0
 11 34  1  0
 11 35  1  0
 11 36  1  0
 14 37  1  0
 15 38  1  0
 18 39  1  0
 18 40  1  0
 20 41  1  0
 21 42  1  0
 22 43  1  0
M  END
> <Name>
ZINC31781600

> <reference>
BDB50017129

> <quality>
0.656

> <status>
decoy

$$$$
ZINC10039222
  SciTegic06061311253D

 39 40  0  0  1  0            999 V2000
   -0.0127    1.0858    0.0080 C   0  0
   -0.7288    1.5792    1.2668 C   0  0
   -2.1642    1.0497    1.2777 C   0  0  2  0  0  0
   -2.9064    1.6341    2.4518 C   0  0
   -3.2944    0.9109    3.3448 O   0  0
   -3.1390    2.9604    2.5096 N   0  0
   -3.8239    3.4997    3.5931 C   0  0
   -4.3252    2.8970    4.6577 N   0  0
   -4.9269    3.5363    5.5646 N   0  0
   -5.0773    4.8430    5.4789 C   0  0
   -4.2497    5.1534    3.9235 S   0  0
   -5.7498    5.8036    6.4254 C   0  0
   -2.1452   -0.3979    1.3890 O   0  0
   -2.1125   -1.0969    0.2435 C   0  0
   -2.1002   -0.5182   -0.8171 O   0  0
   -2.0912   -2.6033    0.2803 C   0  0
   -2.0567   -3.1248   -1.0883 N   0  0
   -3.2291   -3.3887   -1.7427 C   0  0
   -3.1972   -3.8644   -3.0059 C   0  0
   -1.9445   -4.0919   -3.6250 C   0  0
   -1.8904   -4.5249   -4.7619 O   0  0
   -0.8118   -3.8242   -2.9442 N   0  0
   -0.8726   -3.3448   -1.6879 C   0  0
    0.1571   -3.1077   -1.0864 O   0  0
   -0.5438    1.4499   -0.8838 H   0  0
    0.0029   -0.0141    0.0011 H   0  0
    1.0194    1.4662   -0.0005 H   0  0
   -0.1972    1.2144    2.1580 H   0  0
   -0.7445    2.6791    1.2738 H   0  0
   -2.6689    1.3391    0.3441 H   0  0
   -2.8095    3.5746    1.7512 H   0  0
   -5.2305    5.5729    7.3673 H   0  0
   -6.7440    5.3435    6.5248 H   0  0
   -5.7596    6.8692    6.1528 H   0  0
   -2.9940   -2.9715    0.7896 H   0  0
   -1.1982   -2.9443    0.8247 H   0  0
   -4.1929   -3.2141   -1.2421 H   0  0
   -4.1321   -4.0724   -3.5468 H   0  0
    0.1036   -3.9872   -3.3873 H   0  0
  1  2  1  0
  2  3  1  0
  3  4  1  0
  3 13  1  0
  4  5  2  0
  4  6  1  0
  6  7  1  0
  7 11  1  0
  7  8  2  0
  8  9  1  0
  9 10  2  0
 10 11  1  0
 10 12  1  0
 13 14  1  0
 14 15  2  0
 14 16  1  0
 16 17  1  0
 17 23  1  0
 17 18  1  0
 18 19  2  0
 19 20  1  0
 20 21  2  0
 20 22  1  0
 22 23  1  0
 23 24  2  0
  1 25  1  0
  1 26  1  0
  1 27  1  0
  2 28  1  0
  2 29  1  0
  3 30  1  0
  6 31  1  0
 12 32  1  0
 12 33  1  0
 12 34  1  0
 16 35  1  0
 16 36  1  0
 18 37  1  0
 19 38  1  0
 22 39  1  0
M  END
> <Name>
ZINC10039222

> <reference>
BDB50017129

> <quality>
0.655

> <status>
decoy

$$$$
ZINC07818535
  SciTegic06061311253D

 41 42  0  0  1  0            999 V2000
   -0.0126    1.0758    0.0080 C   0  0
   -1.2038    1.7522    0.0172 C   0  0
   -1.1414    3.1421    0.0289 C   0  0
    0.6194    3.4294    0.0139 S   0  0
    1.1521    1.7797    0.0006 C   0  0
   -2.1966    4.0808    0.0435 C   0  0
   -3.3493    3.6985    0.0519 O   0  0
   -1.8922    5.5567    0.0486 C   0  0
   -3.2019    6.3475    0.0647 C   0  0
   -2.8975    7.8234    0.0698 C   0  0
   -1.7463    8.2052    0.0614 O   0  0
   -3.9044    8.7191    0.0837 N   0  0
   -3.6214   10.0913    0.0885 N   0  0
   -4.6284   10.9870    0.1024 C   0  0
   -5.7795   10.6052    0.1108 O   0  0
   -4.3240   12.4629    0.1075 C   0  0
   -5.6337   13.2537    0.1236 C   0  0  1  0  0  0
   -6.3812   12.9766    1.4385 C   0  0
   -7.5318   14.0150    1.5696 C   0  0
   -6.6828   15.5364    0.9701 S   0  0
   -6.1260   16.2238    2.0823 O   0  0
   -7.5483   16.2290    0.0811 O   0  0
   -5.3229   14.7650    0.0016 C   0  0
    0.0023   -0.0241    0.0066 H   0  0
   -2.1666    1.2203    0.0154 H   0  0
    2.1825    1.3949   -0.0110 H   0  0
   -1.3026    5.8065    0.9430 H   0  0
   -1.3186    5.8171   -0.8532 H   0  0
   -3.7764    6.0893    0.9665 H   0  0
   -3.7918    6.0984   -0.8297 H   0  0
   -4.8820    8.3949    0.0908 H   0  0
   -2.6438   10.4156    0.0814 H   0  0
   -3.7344   12.7127    1.0019 H   0  0
   -3.7504   12.7233   -0.7943 H   0  0
   -6.2646   12.9448   -0.7229 H   0  0
   -6.8016   11.9603    1.4181 H   0  0
   -5.6900   13.0825    2.2877 H   0  0
   -8.3658   13.7616    0.8986 H   0  0
   -7.8285   14.1408    2.6213 H   0  0
   -5.3817   15.0888   -1.0480 H   0  0
   -4.3538   14.9987    0.4667 H   0  0
  1  5  2  0
  1  2  1  0
  2  3  2  0
  3  4  1  0
  3  6  1  0
  4  5  1  0
  6  7  2  0
  6  8  1  0
  8  9  1  0
  9 10  1  0
 10 11  2  0
 10 12  1  0
 12 13  1  0
 13 14  1  0
 14 15  2  0
 14 16  1  0
 16 17  1  0
 17 23  1  0
 17 18  1  0
 18 19  1  0
 19 20  1  0
 20 21  2  0
 20 22  2  0
 20 23  1  0
  1 24  1  0
  2 25  1  0
  5 26  1  0
  8 27  1  0
  8 28  1  0
  9 29  1  0
  9 30  1  0
 12 31  1  0
 13 32  1  0
 16 33  1  0
 16 34  1  0
 17 35  1  0
 18 36  1  0
 18 37  1  0
 19 38  1  0
 19 39  1  0
 23 40  1  0
 23 41  1  0
M  END
> <Name>
ZINC07818535

> <reference>
BDB50017129

> <quality>
0.652

> <status>
decoy

$$$$
ZINC08718484
  SciTegic06061311253D

 49 50  0  0  0  0            999 V2000
   -7.0140   -8.6028   -0.8329 C   0  0
   -6.1060   -7.6409   -0.0639 C   0  0
   -5.3022   -6.8652   -1.0117 N   0  0
   -4.0464   -7.4148   -1.5287 C   0  0
   -2.9148   -7.1152   -0.5435 C   0  0
   -5.8131   -5.3672   -1.4988 S   0  0
   -7.2231   -5.3424   -1.3244 O   0  0
   -5.1962   -5.1159   -2.7540 O   0  0
   -5.1850   -4.2655   -0.4338 N   0  0
   -5.8634   -3.9736    0.8382 C   0  0
   -6.0243   -2.4551    0.9668 C   0  0
   -4.1707   -2.0514   -0.5441 C   0  0
   -3.9338   -3.5533   -0.7346 C   0  0
   -4.7949   -0.3725    1.0852 C   0  0
   -3.4047    0.2062    1.1445 C   0  0
   -2.4419   -0.5094    0.9662 O   0  0
   -3.2313    1.5189    1.3958 N   0  0
   -1.9444    2.0546    1.4508 C   0  0
   -0.7216    1.3564    1.2657 C   0  0
    0.2247    2.3117    1.4104 C   0  0
   -0.4234    3.4579    1.6639 O   0  0
   -1.6219    3.2993    1.6865 N   0  0
    1.7164    2.1247    1.3065 C   0  0
   -4.6953   -1.8227    0.8198 N   0  0
   -6.3985   -9.2864   -1.4361 H   0  0
   -7.6802   -8.0298   -1.4946 H   0  0
   -7.6179   -9.1856   -0.1218 H   0  0
   -6.7223   -6.9575    0.5387 H   0  0
   -5.4398   -8.2138    0.5978 H   0  0
   -4.1457   -8.5033   -1.6522 H   0  0
   -3.8163   -6.9549   -2.5011 H   0  0
   -3.1427   -7.5754    0.4293 H   0  0
   -2.8142   -6.0269   -0.4190 H   0  0
   -1.9715   -7.5276   -0.9311 H   0  0
   -6.8544   -4.4509    0.8463 H   0  0
   -5.2588   -4.3519    1.6757 H   0  0
   -6.4411   -2.2101    1.9549 H   0  0
   -6.6962   -2.0875    0.1772 H   0  0
   -3.2214   -1.5098   -0.6690 H   0  0
   -4.9027   -1.6960   -1.2842 H   0  0
   -3.6367   -3.7500   -1.7753 H   0  0
   -3.1425   -3.8912   -0.0492 H   0  0
   -5.3623    0.1112    0.2764 H   0  0
   -5.3036   -0.2085    2.0466 H   0  0
   -4.0490    2.1266    1.5473 H   0  0
   -0.5776    0.2867    1.0538 H   0  0
    1.8265    1.6596    0.3157 H   0  0
    1.9040    1.3224    2.0353 H   0  0
    2.3367    3.0210    1.4543 H   0  0
  1  2  1  0
  2  3  1  0
  3  4  1  0
  3  6  1  0
  4  5  1  0
  6  7  2  0
  6  8  2  0
  6  9  1  0
  9 13  1  0
  9 10  1  0
 10 11  1  0
 11 24  1  0
 12 13  1  0
 12 24  1  0
 14 15  1  0
 14 24  1  0
 15 16  2  0
 15 17  1  0
 17 18  1  0
 18 22  2  0
 18 19  1  0
 19 20  2  0
 20 21  1  0
 20 23  1  0
 21 22  1  0
  1 25  1  0
  1 26  1  0
  1 27  1  0
  2 28  1  0
  2 29  1  0
  4 30  1  0
  4 31  1  0
  5 32  1  0
  5 33  1  0
  5 34  1  0
 10 35  1  0
 10 36  1  0
 11 37  1  0
 11 38  1  0
 12 39  1  0
 12 40  1  0
 13 41  1  0
 13 42  1  0
 14 43  1  0
 14 44  1  0
 17 45  1  0
 19 46  1  0
 23 47  1  0
 23 48  1  0
 23 49  1  0
M  END
> <Name>
ZINC08718484

> <reference>
BDB50017129

> <quality>
0.651

> <status>
decoy

$$$$
ZINC05716075
  SciTegic06061311253D

 46 46  0  0  1  0            999 V2000
    1.1058    7.7569    1.1998 C   0  0
    2.5202    7.1954    1.3578 C   0  0  1  0  0  0
    3.0781    7.5958    2.7250 C   0  0
    2.4782    5.6697    1.2511 C   0  0
    2.0811    5.2686   -0.1710 C   0  0  1  0  0  0
    3.1572    5.7004   -1.1336 C   0  0
    3.9599    4.8914   -1.5485 O   0  0
    3.2276    6.9855   -1.5335 N   0  0
    4.2050    7.3841   -2.5494 C   0  0
    4.0786    8.8620   -2.8157 C   0  0
    3.2564    9.5153   -2.2182 O   0  0
    1.9183    3.8144   -0.2408 N   0  0
    0.7230    3.2562    0.0352 C   0  0
   -0.1949    3.9490    0.4302 O   0  0
    0.5452    1.9300   -0.1266 N   0  0
   -0.5989    1.3957    0.1376 N   0  0
   -0.7779    0.0603   -0.0253 C   0  0
    0.2774   -0.7406   -0.4863 C   0  0
    0.0931   -2.0848   -0.6419 C   0  0
   -1.1424   -2.6583   -0.3565 C   0  0
   -2.1950   -1.8679    0.0953 C   0  0
   -2.0208   -0.5236    0.2611 C   0  0
   -1.3212   -3.9931   -0.5188 O   0  0
   -0.1998   -4.7458   -0.9856 C   0  0
    4.8794    9.4525   -3.7167 O   0  5
    1.1350    8.8539    1.2761 H   0  0
    0.4588    7.3519    1.9919 H   0  0
    0.7041    7.4694    0.2170 H   0  0
    3.1662    7.6007    0.5651 H   0  0
    2.4328    7.1907    3.5184 H   0  0
    3.1090    8.6926    2.8026 H   0  0
    4.0951    7.1924    2.8393 H   0  0
    1.7404    5.2714    1.9631 H   0  0
    3.4715    5.2583    1.4837 H   0  0
    1.1324    5.7570   -0.4384 H   0  0
    2.5942    7.6874   -1.1249 H   0  0
    4.0168    6.8274   -3.4793 H   0  0
    5.2202    7.1626   -2.1885 H   0  0
    2.7172    3.2186   -0.5008 H   0  0
    1.2514   -0.2869   -0.7220 H   0  0
    0.9229   -2.7155   -0.9935 H   0  0
   -3.1692   -2.3269    0.3193 H   0  0
   -2.8534    0.1001    0.6185 H   0  0
    0.6125   -4.5698   -0.2650 H   0  0
    0.0967   -4.2964   -1.9448 H   0  0
   -0.4217   -5.8179   -1.0919 H   0  0
  1  2  1  0
  2  3  1  0
  2  4  1  0
  4  5  1  0
  5  6  1  0
  5 12  1  0
  6  7  2  0
  6  8  1  0
  8  9  1  0
  9 10  1  0
 10 11  2  0
 10 25  1  0
 12 13  1  0
 13 14  2  0
 13 15  1  0
 15 16  2  0
 16 17  1  0
 17 22  2  0
 17 18  1  0
 18 19  2  0
 19 20  1  0
 20 21  2  0
 20 23  1  0
 21 22  1  0
 23 24  1  0
  1 26  1  0
  1 27  1  0
  1 28  1  0
  2 29  1  0
  3 30  1  0
  3 31  1  0
  3 32  1  0
  4 33  1  0
  4 34  1  0
  5 35  1  0
  8 36  1  0
  9 37  1  0
  9 38  1  0
 12 39  1  0
 18 40  1  0
 19 41  1  0
 21 42  1  0
 22 43  1  0
 24 44  1  0
 24 45  1  0
 24 46  1  0
M  CHG  1  25  -1
M  END
> <Name>
ZINC05716075

> <reference>
BDB50017129

> <quality>
0.651

> <status>
decoy

$$$$
ZINC29848814
  SciTegic06061311253D

 50 52  0  0  0  0            999 V2000
    0.9369    3.2979   -0.5232 C   0  0
    1.0069    1.8171   -0.2524 C   0  0
    2.2414    1.1725   -0.2465 C   0  0
    2.2871   -0.1854    0.0035 C   0  0
    1.1172   -0.8491    0.2366 N   0  0
   -0.0707   -0.1740    0.2206 C   0  0
   -0.0993    1.1413   -0.0230 N   0  0
   -1.0280   -1.0592    0.4758 N   0  0
   -0.4924   -2.2608    0.6512 C   0  0
    0.8092   -2.1866    0.5161 N   0  0
    3.4896   -0.8564    0.0178 N   0  0
    3.6876   -1.5553    1.2953 C   0  0
    4.9939   -2.3510    1.2414 C   0  0
    6.1106   -1.4363    0.9662 N   0  0
    5.9127   -0.7374   -0.3114 C   0  0
    4.6064    0.0583   -0.2574 C   0  0
    7.3934   -2.1520    0.9814 C   0  0
    8.5244   -1.1568    0.9461 C   0  0
    8.2902    0.0305    1.0265 O   0  0
    9.7963   -1.5860    0.8251 N   0  0
   10.8958   -0.6185    0.7907 C   0  0
   12.2253   -1.3622    0.6488 C   0  0
   13.3736   -0.3517    0.6129 C   0  0
   14.6154   -1.0463    0.4804 O   0  0
   15.7586   -0.1900    0.4368 C   0  0
    0.4243    3.7287    0.3495 H   0  0
    0.2630    3.4037   -1.3861 H   0  0
    1.9197    3.7588   -0.7009 H   0  0
    3.1663    1.7362   -0.4381 H   0  0
   -1.0551   -3.1790    0.8757 H   0  0
    2.8473   -2.2426    1.4730 H   0  0
    3.7399   -0.8200    2.1118 H   0  0
    5.1592   -2.8510    2.2072 H   0  0
    4.9328   -3.1050    0.4428 H   0  0
    6.7533   -0.0502   -0.4880 H   0  0
    5.8605   -1.4719   -1.1286 H   0  0
    4.4419    0.5584   -1.2232 H   0  0
    4.6698    0.8124    0.5409 H   0  0
    7.4577   -2.8103    0.1025 H   0  0
    7.4656   -2.7560    1.8979 H   0  0
    9.9953   -2.5943    0.7568 H   0  0
   10.7619    0.0587   -0.0657 H   0  0
   10.9010   -0.0343    1.7228 H   0  0
   12.3601   -2.0393    1.5052 H   0  0
   12.2224   -1.9461   -0.2834 H   0  0
   13.2396    0.3255   -0.2435 H   0  0
   13.3787    0.2325    1.5450 H   0  0
   15.7647    0.4024    1.3636 H   0  0
   15.6272    0.4955   -0.4134 H   0  0
   16.6907   -0.7651    0.3345 H   0  0
  1  2  1  0
  2  7  2  0
  2  3  1  0
  3  4  2  0
  4  5  1  0
  4 11  1  0
  5 10  1  0
  5  6  1  0
  6  7  1  0
  6  8  2  0
  8  9  1  0
  9 10  2  0
 11 16  1  0
 11 12  1  0
 12 13  1  0
 13 14  1  0
 14 15  1  0
 14 17  1  0
 15 16  1  0
 17 18  1  0
 18 19  2  0
 18 20  1  0
 20 21  1  0
 21 22  1  0
 22 23  1  0
 23 24  1  0
 24 25  1  0
  1 26  1  0
  1 27  1  0
  1 28  1  0
  3 29  1  0
  9 30  1  0
 12 31  1  0
 12 32  1  0
 13 33  1  0
 13 34  1  0
 15 35  1  0
 15 36  1  0
 16 37  1  0
 16 38  1  0
 17 39  1  0
 17 40  1  0
 20 41  1  0
 21 42  1  0
 21 43  1  0
 22 44  1  0
 22 45  1  0
 23 46  1  0
 23 47  1  0
 25 48  1  0
 25 49  1  0
 25 50  1  0
M  END
> <Name>
ZINC29848814

> <reference>
BDB50017129

> <quality>
0.646

> <status>
decoy

$$$$
ZINC31684833
  SciTegic06061311253D

 40 41  0  0  0  0            999 V2000
    2.4070   -2.8907   -0.0364 C   0  0
    1.1301   -2.0904   -0.0195 C   0  0
    1.1743   -0.6795   -0.0128 C   0  0
    2.2395   -0.0858   -0.0198 O   0  0
    0.0021   -0.0041    0.0020 N   0  0
   -1.1600   -0.7165    0.0150 C   0  0
   -1.1348   -2.0390    0.0029 N   0  0
   -0.0326   -2.6991   -0.0112 N   0  0
   -2.7054    0.1295    0.0412 S   0  0
   -3.8369   -1.2832    0.0503 C   0  0
   -5.2597   -0.7870    0.0730 C   0  0
   -5.4864    0.4044    0.0822 O   0  0
   -6.2803   -1.6672    0.0832 N   0  0
   -6.0065   -3.1064    0.0722 C   0  0
   -5.8907   -3.6145    1.5106 C   0  0
   -5.6156   -5.0605    1.4995 C   0  0
   -5.4033   -6.1765    1.4910 N   0  0
   -7.6634   -1.1849    0.1053 C   0  0
   -8.1579   -1.0124   -1.3078 C   0  0
   -8.7754   -1.9527   -2.0454 C   0  0
   -9.0629   -1.3662   -3.2993 C   0  0
   -8.6041   -0.1026   -3.2529 C   0  0
   -8.0621    0.1079   -2.0422 O   0  0
   -0.0164    1.3618    0.0095 N   0  0
    2.3302   -3.5343   -0.9252 H   0  0
    2.3477   -3.5437    0.8468 H   0  0
    3.3167   -2.2724   -0.0421 H   0  0
   -3.6497   -1.8986    0.9426 H   0  0
   -3.6747   -1.8888   -0.8535 H   0  0
   -6.8278   -3.6322   -0.4368 H   0  0
   -5.0631   -3.2973   -0.4603 H   0  0
   -5.0693   -3.0894    2.0201 H   0  0
   -6.8337   -3.4255    2.0444 H   0  0
   -8.2982   -1.9150    0.6288 H   0  0
   -7.7076   -0.2186    0.6290 H   0  0
   -9.0114   -2.9807   -1.7329 H   0  0
   -9.5654   -1.8503   -4.1497 H   0  0
   -8.6628    0.6335   -4.0682 H   0  0
    0.8733    1.8808    0.0038 H   0  0
   -0.9121    1.8703    0.0208 H   0  0
  1  2  1  0
  2  8  2  0
  2  3  1  0
  3  4  2  0
  3  5  1  0
  5  6  1  0
  5 24  1  0
  6  7  2  0
  6  9  1  0
  7  8  1  0
  9 10  1  0
 10 11  1  0
 11 12  2  0
 11 13  1  0
 13 14  1  0
 13 18  1  0
 14 15  1  0
 15 16  1  0
 16 17  3  0
 18 19  1  0
 19 23  1  0
 19 20  2  0
 20 21  1  0
 21 22  2  0
 22 23  1  0
  1 25  1  0
  1 26  1  0
  1 27  1  0
 10 28  1  0
 10 29  1  0
 14 30  1  0
 14 31  1  0
 15 32  1  0
 15 33  1  0
 18 34  1  0
 18 35  1  0
 20 36  1  0
 21 37  1  0
 22 38  1  0
 24 39  1  0
 24 40  1  0
M  END
> <Name>
ZINC31684833

> <reference>
BDB50017129

> <quality>
0.644

> <status>
decoy

$$$$
ZINC28686366
  SciTegic06061311253D

 42 42  0  0  1  0            999 V2000
    3.6179    0.8386   -0.0287 C   0  0
    2.1122    0.7780   -0.0139 C   0  0
    1.3281   -0.3987   -0.0128 C   0  0
    0.0021   -0.0041    0.0020 C   0  0
   -0.0161    1.3389    0.0094 N   0  0
    1.3044    1.8015   -0.0007 N   0  0
   -1.2167    2.1784    0.0199 C   0  0
   -1.3825   -1.0513    0.0096 Cl  0  0
    1.8283   -1.7825   -0.0242 C   0  0
    2.0251   -2.3488   -1.0815 O   0  0
    2.0683   -2.4220    1.1376 O   0  0
    2.5605   -3.7852    1.0503 C   0  0  2  0  0  0
    1.3768   -4.7545    1.0299 C   0  0
    3.4321   -4.0819    2.2433 C   0  0
    3.5473   -3.2620    3.1288 O   0  0
    4.0837   -5.2589    2.3258 N   0  0
    4.8632   -5.5242    3.3927 C   0  0
    4.9787   -4.7022    4.2804 O   0  0
    5.5148   -6.7012    3.4751 N   0  0
    6.3622   -6.9896    4.6349 C   0  0
    6.9806   -8.3806    4.4812 C   0  0
    7.8629   -8.3881    3.3572 O   0  0
    8.4965   -9.6476    3.1240 C   0  0
    3.8458    1.4579    0.8513 H   0  0
    3.8282    1.4667   -0.9069 H   0  0
    4.1394   -0.1299   -0.0388 H   0  0
   -1.7640    1.8070    0.8988 H   0  0
   -1.7727    1.8166   -0.8576 H   0  0
   -1.0525    3.2661    0.0250 H   0  0
    3.1481   -3.9045    0.1281 H   0  0
    0.7400   -4.5389    0.1593 H   0  0
    0.7887   -4.6361    1.9519 H   0  0
    1.7490   -5.7875    0.9638 H   0  0
    3.9859   -5.9556    1.5735 H   0  0
    5.4170   -7.3978    2.7227 H   0  0
    5.7545   -6.9585    5.5513 H   0  0
    7.1629   -6.2381    4.7002 H   0  0
    7.5445   -8.6339    5.3910 H   0  0
    6.1834   -9.1223    4.3256 H   0  0
    7.7034  -10.3952    2.9751 H   0  0
    9.0562   -9.9107    4.0337 H   0  0
    9.1652   -9.6083    2.2515 H   0  0
  1  2  1  0
  2  6  2  0
  2  3  1  0
  3  4  2  0
  3  9  1  0
  4  5  1  0
  4  8  1  0
  5  6  1  0
  5  7  1  0
  9 10  2  0
  9 11  1  0
 11 12  1  0
 12 13  1  0
 12 14  1  0
 14 15  2  0
 14 16  1  0
 16 17  1  0
 17 18  2  0
 17 19  1  0
 19 20  1  0
 20 21  1  0
 21 22  1  0
 22 23  1  0
  1 24  1  0
  1 25  1  0
  1 26  1  0
  7 27  1  0
  7 28  1  0
  7 29  1  0
 12 30  1  0
 13 31  1  0
 13 32  1  0
 13 33  1  0
 16 34  1  0
 19 35  1  0
 20 36  1  0
 20 37  1  0
 21 38  1  0
 21 39  1  0
 23 40  1  0
 23 41  1  0
 23 42  1  0
M  END
> <Name>
ZINC28686366

> <reference>
BDB50017129

> <quality>
0.643

> <status>
decoy

$$$$
ZINC30757919
  SciTegic06061311253D

 37 38  0  0  0  0            999 V2000
    4.6466    0.0561   -2.4842 C   0  0
    4.3401   -1.0932   -1.6290 N   0  0
    3.9310   -0.8583   -0.0416 S   0  0
    4.9079    0.0174    0.5043 O   0  0
    3.6698   -2.1437    0.5050 O   0  0
    2.4022    0.0175   -0.0217 C   0  0
    1.2067   -0.6813   -0.0136 C   0  0
    0.0021   -0.0041    0.0020 C   0  0
   -0.0167    1.3789    0.0096 C   0  0
    1.1879    2.0900    0.0019 C   0  0
    2.4003    1.3958   -0.0138 C   0  0
    1.1781    3.5656    0.0095 C   0  0
    0.1221    4.1660    0.0224 O   0  0
    2.3404    4.2469    0.0020 O   0  0
    2.2549    5.6964    0.0101 C   0  0
    3.6647    6.2906   -0.0001 C   0  0
    4.3297    5.9486   -1.2599 N   0  0
    5.0744    4.8410   -1.4465 C   0  0
    5.3115    3.9726   -0.6345 O   0  0
    5.5524    4.9060   -2.8836 C   0  0
    4.9730    6.1643   -3.3846 N   0  5
    4.2773    6.7002   -2.3655 C   0  0
    3.6692    7.7498   -2.4408 O   0  0
   -1.1944    2.0408    0.0188 F   0  0
    5.4552    0.5834   -1.9569 H   0  0
    3.7563    0.6981   -2.4117 H   0  0
    4.9078   -0.1941   -3.5230 H   0  0
    4.3791   -2.0473   -2.0150 H   0  0
    1.2159   -1.7812   -0.0196 H   0  0
   -0.9435   -0.5660    0.0084 H   0  0
    3.3515    1.9482   -0.0198 H   0  0
    1.7244    6.0285    0.9147 H   0  0
    1.7078    6.0366   -0.8815 H   0  0
    4.2425    5.8811    0.8416 H   0  0
    3.6023    7.3846    0.0958 H   0  0
    6.6509    4.9534   -2.9163 H   0  0
    5.1585    4.0522   -3.4545 H   0  0
  1  2  1  0
  2  3  1  0
  3  4  2  0
  3  5  2  0
  3  6  1  0
  6 11  2  0
  6  7  1  0
  7  8  2  0
  8  9  1  0
  9 10  2  0
  9 24  1  0
 10 11  1  0
 10 12  1  0
 12 13  2  0
 12 14  1  0
 14 15  1  0
 15 16  1  0
 16 17  1  0
 17 22  1  0
 17 18  1  0
 18 19  2  0
 18 20  1  0
 20 21  1  0
 21 22  1  0
 22 23  2  0
  1 25  1  0
  1 26  1  0
  1 27  1  0
  2 28  1  0
  7 29  1  0
  8 30  1  0
 11 31  1  0
 15 32  1  0
 15 33  1  0
 16 34  1  0
 16 35  1  0
 20 36  1  0
 20 37  1  0
M  CHG  1  21  -1
M  END
> <Name>
ZINC30757919

> <reference>
BDB50017129

> <quality>
0.641

> <status>
decoy

$$$$
ZINC20678720
  SciTegic06061311253D

 48 49  0  0  1  0            999 V2000
   -0.3610    1.4224   -1.0739 C   0  0
    0.2725    0.8263    0.1848 C   0  0
   -0.4122    1.3364    1.3593 O   0  0
    0.0268    0.9060    2.5585 C   0  0
    0.9564    0.1257    2.6210 O   0  0
   -0.6200    1.3812    3.7934 C   0  0
   -1.7193    0.7839    4.4465 C   0  0
   -1.9902    1.5542    5.5568 C   0  0
   -1.0900    2.6000    5.5814 N   0  0
   -0.2672    2.5006    4.5271 C   0  0
    0.8557    3.4497    4.1965 C   0  0
   -3.0155    1.3170    6.5035 C   0  0
   -3.7495    0.3584    6.3760 O   0  0
   -3.1959    2.2545    7.6695 C   0  0
   -4.3172    1.7937    8.4993 N   0  0
   -5.5882    1.8947    7.7697 C   0  0
   -4.3760    2.5373    9.7648 C   0  0  2  0  0  0
   -3.0556    2.3483   10.5298 C   0  0
   -3.2570    2.8725   11.9804 C   0  0
   -4.9504    2.2392   12.3356 S   0  0
   -4.8466    0.9672   12.9606 O   0  0
   -5.7062    3.2666   12.9622 O   0  0
   -5.5582    2.0124   10.6147 C   0  0
   -2.4539   -0.4590    4.0145 C   0  0
   -0.2729    2.5185   -1.0461 H   0  0
   -1.4236    1.1417   -1.1190 H   0  0
    0.1572    1.0364   -1.9641 H   0  0
    0.1836   -0.2697    0.1563 H   0  0
    1.3351    1.1070    0.2300 H   0  0
   -1.0555    3.3402    6.2968 H   0  0
    0.6195    3.7528    3.1658 H   0  0
    1.7240    2.7786    4.1209 H   0  0
    1.0015    4.2928    4.8878 H   0  0
   -2.2763    2.2706    8.2729 H   0  0
   -3.4082    3.2676    7.2974 H   0  0
   -5.5263    1.2782    6.8608 H   0  0
   -5.7508    2.9440    7.4825 H   0  0
   -6.4179    1.5467    8.4025 H   0  0
   -4.5251    3.6077    9.5601 H   0  0
   -2.2563    2.9219   10.0378 H   0  0
   -2.7928    1.2805   10.5562 H   0  0
   -3.2554    3.9723   12.0037 H   0  0
   -2.5321    2.4111   12.6672 H   0  0
   -6.4549    2.6282   10.4510 H   0  0
   -5.7322    0.9442   10.4179 H   0  0
   -1.6387   -1.1928    3.9312 H   0  0
   -2.7358   -0.2137    2.9799 H   0  0
   -3.2932   -0.7861    4.6458 H   0  0
  1  2  1  0
  2  3  1  0
  3  4  1  0
  4  5  2  0
  4  6  1  0
  6 10  2  0
  6  7  1  0
  7  8  2  0
  7 24  1  0
  8  9  1  0
  8 12  1  0
  9 10  1  0
 10 11  1  0
 12 13  2  0
 12 14  1  0
 14 15  1  0
 15 16  1  0
 15 17  1  0
 17 23  1  0
 17 18  1  0
 18 19  1  0
 19 20  1  0
 20 21  2  0
 20 22  2  0
 20 23  1  0
  1 25  1  0
  1 26  1  0
  1 27  1  0
  2 28  1  0
  2 29  1  0
  9 30  1  0
 11 31  1  0
 11 32  1  0
 11 33  1  0
 14 34  1  0
 14 35  1  0
 16 36  1  0
 16 37  1  0
 16 38  1  0
 17 39  1  0
 18 40  1  0
 18 41  1  0
 19 42  1  0
 19 43  1  0
 23 44  1  0
 23 45  1  0
 24 46  1  0
 24 47  1  0
 24 48  1  0
M  END
> <Name>
ZINC20678720

> <reference>
BDB50017129

> <quality>
0.641

> <status>
decoy

$$$$
ZINC27666288
  SciTegic06061311253D

 39 40  0  0  0  0            999 V2000
   -2.4505    7.6535    1.9340 C   0  0
   -2.4617    6.1292    1.8026 C   0  0
   -2.4739    5.6737    0.0467 S   0  0
   -1.2399    6.0315   -0.5603 O   0  0
   -3.7091    6.0485   -0.5475 O   0  0
   -2.4860    3.9118    0.0360 C   0  0
   -3.6441    3.2798    0.0381 N   0  0
   -3.7002    1.9596    0.0307 C   0  0
   -2.5159    1.2323    0.0207 C   0  0
   -1.3092    1.9350    0.0188 C   0  0
   -1.3404    3.2659    0.0318 N   0  0
   -0.0144    1.2107    0.0087 C   0  0
    0.0021   -0.0041    0.0020 O   0  0
    1.1435    1.9004    0.0013 N   0  0
    2.4220    1.1852   -0.0147 C   0  0
    3.5713    2.1952   -0.0203 C   0  0
    4.9065    1.4483   -0.0370 C   0  0
    6.0069    2.4154   -0.0423 N   0  0
    6.6102    2.9533   -1.1470 C   0  0
    7.5637    3.7928   -0.7003 C   0  0
    7.5495    3.7611    0.6405 N   0  0
    6.6195    2.9381    1.0417 C   0  0
   -2.5362   -0.5036    0.0102 Cl  0  0
   -3.3481    8.0706    1.4541 H   0  0
   -1.5522    8.0582    1.4449 H   0  0
   -2.4431    7.9304    2.9985 H   0  0
   -3.3599    5.7244    2.2918 H   0  0
   -1.5637    5.7130    2.2825 H   0  0
   -4.6714    1.4431    0.0324 H   0  0
    1.1295    2.9303    0.0069 H   0  0
    2.4978    0.5493    0.8796 H   0  0
    2.4815    0.5582   -0.9166 H   0  0
    3.4964    2.8312   -0.9147 H   0  0
    3.5141    2.8224    0.8816 H   0  0
    4.9660    0.8214   -0.9389 H   0  0
    4.9823    0.8123    0.8573 H   0  0
    6.3636    2.7407   -2.1977 H   0  0
    8.2363    4.3984   -1.3255 H   0  0
    6.3751    2.7083    2.0893 H   0  0
  1  2  1  0
  2  3  1  0
  3  4  2  0
  3  5  2  0
  3  6  1  0
  6 11  2  0
  6  7  1  0
  7  8  2  0
  8  9  1  0
  9 10  2  0
  9 23  1  0
 10 11  1  0
 10 12  1  0
 12 13  2  0
 12 14  1  0
 14 15  1  0
 15 16  1  0
 16 17  1  0
 17 18  1  0
 18 22  1  0
 18 19  1  0
 19 20  2  0
 20 21  1  0
 21 22  2  0
  1 24  1  0
  1 25  1  0
  1 26  1  0
  2 27  1  0
  2 28  1  0
  8 29  1  0
 14 30  1  0
 15 31  1  0
 15 32  1  0
 16 33  1  0
 16 34  1  0
 17 35  1  0
 17 36  1  0
 19 37  1  0
 20 38  1  0
 22 39  1  0
M  END
> <Name>
ZINC27666288

> <reference>
BDB50017129

> <quality>
0.640

> <status>
decoy

$$$$
ZINC08232179
  SciTegic06061311253D

 42 43  0  0  0  0            999 V2000
    3.6033   10.0660    4.6812 C   0  0
    2.5598    9.0378    4.6986 N   0  0
    2.6247    7.9974    3.8444 C   0  0
    3.5487    7.9121    3.0595 O   0  0
    1.6647    7.0514    3.8604 N   0  0
    1.7296    6.0110    3.0061 C   0  0
    2.6513    5.9260    2.2233 O   0  0
    0.6562    4.9533    3.0241 C   0  0
    1.0230    3.7002    1.7706 S   0  0
   -0.3502    2.6214    2.0054 C   0  0
   -1.3236    2.7758    2.8767 N   0  0
   -2.1573    1.8022    2.7836 N   0  0
   -1.7711    0.9703    1.8441 C   0  0
   -0.6039    1.4721    1.3148 N   0  0
    0.2018    0.8902    0.2385 C   0  0
   -0.2268    1.4915   -1.1015 C   0  0
    0.5591    0.9239   -2.1514 O   0  0
    0.2371    1.4205   -3.4521 C   0  0
   -2.4601   -0.2704    1.4321 C   0  0
   -2.1918   -0.8652    0.1931 C   0  0
   -2.8540   -2.0254   -0.1486 C   0  0
   -3.7365   -2.5681    0.6689 N   0  0
   -4.0227   -2.0377    1.8430 C   0  0
   -3.4038   -0.8809    2.2674 C   0  0
    3.6168   10.4433    3.6480 H   0  0
    4.5453    9.5212    4.8417 H   0  0
    3.4513   10.8677    5.4188 H   0  0
    1.7766    9.1101    5.3636 H   0  0
    0.8815    7.1236    4.5255 H   0  0
    0.6242    4.4799    4.0165 H   0  0
   -0.3184    5.4145    2.8061 H   0  0
    1.2648    1.1109    0.4156 H   0  0
    0.0524   -0.1994    0.2151 H   0  0
   -1.2896    1.2708   -1.2794 H   0  0
   -0.0771    2.5811   -1.0804 H   0  0
    0.3779    2.5113   -3.4347 H   0  0
   -0.8272    1.2099   -3.6333 H   0  0
    0.8645    0.9579   -4.2282 H   0  0
   -1.4639   -0.4138   -0.4971 H   0  0
   -2.6438   -2.5052   -1.1159 H   0  0
   -4.7652   -2.5251    2.4920 H   0  0
   -3.6476   -0.4443    3.2472 H   0  0
  1  2  1  0
  2  3  1  0
  3  4  2  0
  3  5  1  0
  5  6  1  0
  6  7  2  0
  6  8  1  0
  8  9  1  0
  9 10  1  0
 10 14  1  0
 10 11  2  0
 11 12  1  0
 12 13  2  0
 13 14  1  0
 13 19  1  0
 14 15  1  0
 15 16  1  0
 16 17  1  0
 17 18  1  0
 19 24  2  0
 19 20  1  0
 20 21  2  0
 21 22  1  0
 22 23  2  0
 23 24  1  0
  1 25  1  0
  1 26  1  0
  1 27  1  0
  2 28  1  0
  5 29  1  0
  8 30  1  0
  8 31  1  0
 15 32  1  0
 15 33  1  0
 16 34  1  0
 16 35  1  0
 18 36  1  0
 18 37  1  0
 18 38  1  0
 20 39  1  0
 21 40  1  0
 23 41  1  0
 24 42  1  0
M  END
> <Name>
ZINC08232179

> <reference>
BDB50017129

> <quality>
0.639

> <status>
decoy

$$$$
ZINC13906325
  SciTegic06061311253D

 85 85  0  0  1  0            999 V2000
   -0.2346   -2.2481    0.8635 C   0  0
   -0.7573   -3.5260    1.5227 C   0  0  1  0  0  0
    0.0178   -3.7865    2.8159 C   0  0
    1.4834   -4.0731    2.4831 C   0  0
    2.2188   -4.4558    3.7416 C   0  0
    2.6865   -3.5466    4.5109 N   0  0
    2.4161   -2.1831    4.2414 O   0  0
    2.4033   -5.9094    4.0940 C   0  0  1  0  0  0
    1.0341   -6.5743    4.2492 C   0  0
    3.1866   -6.6085    2.9811 C   0  0
    3.1457   -6.0166    5.3571 N   0  3
    3.3448   -7.4226    5.7330 C   0  0
    4.1197   -7.4935    7.0503 C   0  0
    4.3271   -8.9580    7.4419 C   0  0
    5.0711   -9.0260    8.7067 N   0  0
    5.2893  -10.4202    9.1147 C   0  0  1  0  0  0
    3.9387  -11.1141    9.3022 C   0  0
    6.0911  -11.1484    8.0341 C   0  0
    6.0538  -10.4499   10.4131 C   0  0
    5.5824  -11.0854   11.4187 N   0  0
    6.3007  -11.1133   12.6387 O   0  0
    7.3733   -9.7310   10.5272 C   0  0
   -2.2443   -3.3629    1.8435 C   0  0
   -3.0352   -3.2268    0.5408 C   0  0
   -4.4629   -3.0702    0.8488 N   0  3
   -5.2552   -2.9364   -0.3810 C   0  0
   -6.7334   -2.7756   -0.0204 C   0  0  2  0  0  0
   -7.5719   -2.7614   -1.3001 C   0  0
   -8.9944   -2.7277   -0.9515 N   0  0
   -9.8308   -3.8062   -0.8469 C   0  0
  -11.0432   -3.3276   -0.5082 C   0  0
  -10.9496   -1.9933   -0.4088 N   0  0
   -9.7240   -1.6273   -0.6677 C   0  0
   -9.2181   -0.2362   -0.6553 N   0  0
   -8.0501   -0.0107   -0.9166 O   0  0
   -9.9699    0.6828   -0.3837 O   0  0
   -6.9206   -1.5473    0.6854 O   0  0
    0.8345   -2.3644    0.6322 H   0  0
   -0.3705   -1.3986    1.5490 H   0  0
   -0.7914   -2.0602   -0.0663 H   0  0
   -0.6212   -4.3747    0.8363 H   0  0
   -0.0438   -2.9007    3.4652 H   0  0
   -0.4156   -4.6534    3.3362 H   0  0
    1.5404   -4.9000    1.7599 H   0  0
    1.9446   -3.1738    2.0489 H   0  0
    1.4288   -2.1134    4.2187 H   0  0
    0.4774   -6.4948    3.3038 H   0  0
    0.4702   -6.0725    5.0494 H   0  0
    1.1680   -7.6354    4.5064 H   0  0
    4.1713   -6.1313    2.8689 H   0  0
    2.6314   -6.5290    2.0348 H   0  0
    3.3216   -7.6696    3.2377 H   0  0
    4.0632   -5.5606    5.2516 H   0  0
    2.6206   -5.5376    6.1026 H   0  0
    2.3671   -7.9112    5.8566 H   0  0
    3.9147   -7.9368    4.9451 H   0  0
    5.0978   -7.0054    6.9272 H   0  0
    3.5507   -6.9807    7.8398 H   0  0
    3.3494   -9.4466    7.5655 H   0  0
    4.8970   -9.4722    6.6540 H   0  0
    5.9823   -8.5602    8.5903 H   0  0
    3.3799  -11.0932    8.3549 H   0  0
    3.3616  -10.5915   10.0792 H   0  0
    4.1014  -12.1582    9.6077 H   0  0
    7.0625  -10.6504    7.8987 H   0  0
    5.5338  -11.1275    7.0860 H   0  0
    6.2548  -12.1925    8.3390 H   0  0
    6.4300  -10.1634   12.8860 H   0  0
    7.1509   -8.6901   10.2498 H   0  0
    7.9925  -10.1509    9.7208 H   0  0
    7.8504   -9.8138   11.5149 H   0  0
   -2.5991   -4.2450    2.3968 H   0  0
   -2.3915   -2.4617    2.4568 H   0  0
   -2.6812   -2.3446   -0.0128 H   0  0
   -2.8900   -4.1277   -0.0734 H   0  0
   -4.7893   -3.8936    1.3746 H   0  0
   -4.5958   -2.2307    1.4305 H   0  0
   -4.9167   -2.0522   -0.9411 H   0  0
   -5.1257   -3.8353   -1.0016 H   0  0
   -7.0492   -3.6157    0.6156 H   0  0
   -7.3606   -3.6666   -1.8883 H   0  0
   -7.3193   -1.8708   -1.8942 H   0  0
   -9.5640   -4.8610   -1.0084 H   0  0
  -11.9511   -3.9261   -0.3422 H   0  0
   -6.6369   -0.7905    0.1137 H   0  0
  1  2  1  0
  2  3  1  0
  2 23  1  0
  3  4  1  0
  4  5  1  0
  5  6  2  0
  5  8  1  0
  6  7  1  0
  8  9  1  0
  8 10  1  0
  8 11  1  0
 11 12  1  0
 12 13  1  0
 13 14  1  0
 14 15  1  0
 15 16  1  0
 16 17  1  0
 16 18  1  0
 16 19  1  0
 19 20  2  0
 19 22  1  0
 20 21  1  0
 23 24  1  0
 24 25  1  0
 25 26  1  0
 26 27  1  0
 27 28  1  0
 27 37  1  0
 28 29  1  0
 29 33  1  0
 29 30  1  0
 30 31  2  0
 31 32  1  0
 32 33  2  0
 33 34  1  0
 34 35  2  0
 34 36  2  0
  1 38  1  0
  1 39  1  0
  1 40  1  0
  2 41  1  0
  3 42  1  0
  3 43  1  0
  4 44  1  0
  4 45  1  0
  7 46  1  0
  9 47  1  0
  9 48  1  0
  9 49  1  0
 10 50  1  0
 10 51  1  0
 10 52  1  0
 11 53  1  0
 11 54  1  0
 12 55  1  0
 12 56  1  0
 13 57  1  0
 13 58  1  0
 14 59  1  0
 14 60  1  0
 15 61  1  0
 17 62  1  0
 17 63  1  0
 17 64  1  0
 18 65  1  0
 18 66  1  0
 18 67  1  0
 21 68  1  0
 22 69  1  0
 22 70  1  0
 22 71  1  0
 23 72  1  0
 23 73  1  0
 24 74  1  0
 24 75  1  0
 25 76  1  0
 25 77  1  0
 26 78  1  0
 26 79  1  0
 27 80  1  0
 28 81  1  0
 28 82  1  0
 30 83  1  0
 31 84  1  0
 37 85  1  0
M  CHG  2  11   1  25   1
M  END
> <Name>
ZINC13906325

> <reference>
BDB50085452

> <quality>
0.725

> <status>
decoy

$$$$
ZINC04742127
  SciTegic06061311253D

 80 80  0  0  0  0            999 V2000
   -2.3160    0.8627   -3.2360 C   0  0
   -0.9494    1.5491   -3.2834 C   0  0
   -0.8559    2.5297   -2.1936 N   0  0
    0.6352    2.4306   -1.4195 P   0  0
    0.7468    3.5680   -0.3030 N   0  0
    2.1456    4.2191    0.0762 P   0  0
    2.4378    3.9873    1.6358 N   0  0
    3.0715    2.5586    2.0442 P   0  0
    2.0307    1.4386    1.5807 N   0  0
    2.1313    0.7594    0.1479 P   0  0
    0.7690    1.0112   -0.6598 N   0  0
    2.3791   -0.8955    0.3276 N   0  0
    3.4053   -1.1669    1.3431 C   0  0
    2.9517   -2.3292    2.2287 C   0  0
    3.4196    1.4306   -0.7020 N   0  0
    3.6541    0.7084   -1.9595 C   0  0
    4.1635    1.6852   -3.0212 C   0  0
    3.2923    2.4832    3.7109 N   0  0
    4.1449    3.5840    4.1793 C   0  0
    3.4804    4.2709    5.3741 C   0  0
    4.5427    2.3366    1.2575 N   0  0
    5.5722    1.8604    2.1909 C   0  0
    6.1095    0.5103    1.7122 C   0  0
    3.3643    3.5010   -0.8357 N   0  0
    4.6450    4.1941   -0.6415 C   0  0
    5.7944    3.2552   -1.0132 C   0  0
    2.1018    5.8702   -0.2470 N   0  0
    3.2008    6.5690    0.4328 C   0  0
    3.8475    7.5637   -0.5332 C   0  0
    1.8788    2.6018   -2.5404 N   0  0
    1.6943    3.8133   -3.3505 C   0  0
    3.0148    4.5824   -3.4259 C   0  0
   -3.1097    1.6154   -3.3519 H   0  0
   -2.4364    0.3494   -2.2706 H   0  0
   -2.3867    0.1282   -4.0518 H   0  0
   -0.8289    2.0624   -4.2488 H   0  0
   -0.1563    0.7958   -3.1671 H   0  0
   -0.9769    3.4772   -2.5789 H   0  0
    2.6800   -1.2957   -0.5725 H   0  0
    4.3509   -1.4317    0.8474 H   0  0
    3.5548   -0.2709    1.9635 H   0  0
    2.8028   -3.2265    1.6100 H   0  0
    2.0061   -2.0659    2.7252 H   0  0
    3.7197   -2.5329    2.9894 H   0  0
    4.2705    1.3870   -0.1233 H   0  0
    4.4048   -0.0788   -1.7959 H   0  0
    2.7137    0.2526   -2.3028 H   0  0
    5.1046    2.1411   -2.6801 H   0  0
    3.4137    2.4730   -3.1860 H   0  0
    4.3393    1.1450   -3.9632 H   0  0
    3.7335    1.5856    3.9569 H   0  0
    5.1239    3.1856    4.4840 H   0  0
    4.2824    4.3137    3.3677 H   0  0
    3.3432    3.5428    6.1872 H   0  0
    2.5012    4.6700    5.0709 H   0  0
    4.1183    5.0953    5.7253 H   0  0
    4.8476    3.2296    0.8447 H   0  0
    6.3957    2.5886    2.2315 H   0  0
    5.1347    1.7454    3.1936 H   0  0
    6.5485    0.6237    0.7100 H   0  0
    5.2871   -0.2191    1.6712 H   0  0
    6.8805    0.1531    2.4108 H   0  0
    3.1096    3.5344   -1.8332 H   0  0
    4.6797    5.0871   -1.2828 H   0  0
    4.7444    4.4950    0.4119 H   0  0
    5.6973    2.9542   -2.0667 H   0  0
    5.7611    2.3616   -0.3726 H   0  0
    6.7537    3.7735   -0.8680 H   0  0
    1.2037    6.2579    0.0756 H   0  0
    2.8071    7.1098    1.3060 H   0  0
    3.9532    5.8377    0.7630 H   0  0
    3.0967    8.2966   -0.8636 H   0  0
    4.2418    7.0243   -1.4070 H   0  0
    4.6705    8.0873   -0.0248 H   0  0
    1.8954    1.7796   -3.1606 H   0  0
    1.3764    3.5312   -4.3651 H   0  0
    0.9255    4.4506   -2.8892 H   0  0
    3.7846    3.9469   -3.8880 H   0  0
    3.3340    4.8653   -2.4119 H   0  0
    2.8773    5.4897   -4.0324 H   0  0
  1  2  1  0
  2  3  1  0
  3  4  1  0
  4 11  1  0
  4  5  2  0
  4 30  1  0
  5  6  1  0
  6  7  2  0
  6 24  1  0
  6 27  1  0
  7  8  1  0
  8  9  2  0
  8 18  1  0
  8 21  1  0
  9 10  1  0
 10 11  2  0
 10 12  1  0
 10 15  1  0
 12 13  1  0
 13 14  1  0
 15 16  1  0
 16 17  1  0
 18 19  1  0
 19 20  1  0
 21 22  1  0
 22 23  1  0
 24 25  1  0
 25 26  1  0
 27 28  1  0
 28 29  1  0
 30 31  1  0
 31 32  1  0
  1 33  1  0
  1 34  1  0
  1 35  1  0
  2 36  1  0
  2 37  1  0
  3 38  1  0
 12 39  1  0
 13 40  1  0
 13 41  1  0
 14 42  1  0
 14 43  1  0
 14 44  1  0
 15 45  1  0
 16 46  1  0
 16 47  1  0
 17 48  1  0
 17 49  1  0
 17 50  1  0
 18 51  1  0
 19 52  1  0
 19 53  1  0
 20 54  1  0
 20 55  1  0
 20 56  1  0
 21 57  1  0
 22 58  1  0
 22 59  1  0
 23 60  1  0
 23 61  1  0
 23 62  1  0
 24 63  1  0
 25 64  1  0
 25 65  1  0
 26 66  1  0
 26 67  1  0
 26 68  1  0
 27 69  1  0
 28 70  1  0
 28 71  1  0
 29 72  1  0
 29 73  1  0
 29 74  1  0
 30 75  1  0
 31 76  1  0
 31 77  1  0
 32 78  1  0
 32 79  1  0
 32 80  1  0
M  END
> <Name>
ZINC04742127

> <reference>
BDB50085452

> <quality>
0.722

> <status>
decoy

$$$$
ZINC31430039
  SciTegic06061311253D

 63 64  0  0  0  0            999 V2000
  -17.8137    5.6564   -5.0452 C   0  0
  -16.4121    6.1790   -4.7239 C   0  0
  -15.6981    6.4669   -5.9750 N   0  3
  -16.3289    7.5798   -6.6971 C   0  0
  -15.9297    7.5216   -8.1729 C   0  0
  -14.2781    6.7429   -5.7192 C   0  0
  -13.5469    5.4298   -5.4327 C   0  0
  -12.1109    5.6890   -5.3020 N   0  0
  -11.2412    4.6463   -5.0403 C   0  0
  -11.7161    3.4529   -4.9149 N   0  0
  -10.7438    2.1545   -4.6072 S   0  0
   -9.3202    2.8013   -4.0769 N   0  0
   -9.0233    4.0431   -4.2646 C   0  0
   -9.8852    4.9180   -4.9160 N   0  0
   -9.3501    6.1548   -5.4905 C   0  0
   -7.8121    4.5198   -3.7980 N   0  0
   -6.8890    3.6191   -3.1031 C   0  0
   -5.6334    4.3919   -2.6943 C   0  0
   -4.4904    3.2766   -1.8338 S   0  0
   -3.0739    4.3323   -1.4220 C   0  0
   -2.0356    3.5182   -0.6938 C   0  0
   -0.9177    3.1363   -1.3278 C   0  0
   -0.0854    2.2346   -0.0277 S   0  0
   -0.0668    0.8593   -0.3846 O   0  0
    1.0715    2.9686    0.3496 O   0  0
   -1.3280    2.4652    1.2364 C   0  0
   -2.2288    3.1784    0.5807 N   0  0
   -1.3424    2.0325    2.5025 N   0  0
   -2.3820    2.2926    3.2787 C   0  0
   -3.5135    2.8397    2.7441 N   0  3
   -2.3235    2.0138    4.6145 N   0  0
  -17.7350    4.7356   -5.6418 H   0  0
  -18.3675    6.4163   -5.6161 H   0  0
  -18.3489    5.4406   -4.1087 H   0  0
  -15.8582    5.4192   -4.1530 H   0  0
  -16.4918    7.0999   -4.1276 H   0  0
  -15.7553    5.6295   -6.5719 H   0  0
  -17.4226    7.5004   -6.6103 H   0  0
  -15.9951    8.5348   -6.2651 H   0  0
  -16.2638    6.5676   -8.6068 H   0  0
  -14.8361    7.6010   -8.2614 H   0  0
  -16.4017    8.3547   -8.7143 H   0  0
  -14.1840    7.4112   -4.8506 H   0  0
  -13.8331    7.2246   -6.6024 H   0  0
  -13.9272    4.9949   -4.4966 H   0  0
  -13.7178    4.7255   -6.2602 H   0  0
  -11.7492    6.6479   -5.4050 H   0  0
   -9.9308    6.9665   -5.0281 H   0  0
   -9.6218    6.1231   -6.5560 H   0  0
   -8.2675    6.2793   -5.3402 H   0  0
   -7.5589    5.5082   -3.9390 H   0  0
   -7.3782    3.2140   -2.2050 H   0  0
   -6.6082    2.7924   -3.7722 H   0  0
   -5.1434    4.7969   -3.5920 H   0  0
   -5.9121    5.2184   -2.0241 H   0  0
   -2.6382    4.7386   -2.3467 H   0  0
   -3.4070    5.1602   -0.7789 H   0  0
   -0.5998    3.3258   -2.3637 H   0  0
   -3.0904    3.4749    1.0610 H   0  0
   -3.5576    3.0498    1.7367 H   0  0
   -4.3227    3.0422    3.3483 H   0  0
   -1.4702    1.6011    5.0177 H   0  0
   -3.1327    2.2162    5.2187 H   0  0
  1  2  1  0
  2  3  1  0
  3  4  1  0
  3  6  1  0
  4  5  1  0
  6  7  1  0
  7  8  1  0
  8  9  1  0
  9 14  1  0
  9 10  2  0
 10 11  1  0
 11 12  1  0
 12 13  2  0
 13 14  1  0
 13 16  1  0
 14 15  1  0
 16 17  1  0
 17 18  1  0
 18 19  1  0
 19 20  1  0
 20 21  1  0
 21 27  1  0
 21 22  2  0
 22 23  1  0
 23 24  2  0
 23 25  2  0
 23 26  1  0
 26 27  1  0
 26 28  2  0
 28 29  1  0
 29 30  2  0
 29 31  1  0
  1 32  1  0
  1 33  1  0
  1 34  1  0
  2 35  1  0
  2 36  1  0
  3 37  1  0
  4 38  1  0
  4 39  1  0
  5 40  1  0
  5 41  1  0
  5 42  1  0
  6 43  1  0
  6 44  1  0
  7 45  1  0
  7 46  1  0
  8 47  1  0
 15 48  1  0
 15 49  1  0
 15 50  1  0
 16 51  1  0
 17 52  1  0
 17 53  1  0
 18 54  1  0
 18 55  1  0
 20 56  1  0
 20 57  1  0
 22 58  1  0
 27 59  1  0
 30 60  1  0
 30 61  1  0
 31 62  1  0
 31 63  1  0
M  CHG  2   3   1  30   1
M  END
> <Name>
ZINC31430039

> <reference>
BDB50085452

> <quality>
0.711

> <status>
decoy

$$$$
ZINC03831102
  SciTegic06061311253D

 93 96  0  0  1  0            999 V2000
    0.0832    4.9359   -1.4986 C   0  0
    0.5146    4.0772   -0.3060 C   0  0  2  0  0  0
    1.9394    4.4539    0.0897 C   0  0
    2.6302    3.2578    0.7264 C   0  0  2  0  0  0
    3.9270    3.6177    1.4228 C   0  0  2  0  0  0
    3.7561    4.9872    2.1199 C   0  0
    4.2801    6.0227    1.1129 C   0  0
    5.3176    5.2882    0.2341 C   0  0  1  0  0  0
    5.1308    3.7918    0.4956 C   0  0  2  0  0  0
    5.1591    2.9044   -0.7123 C   0  0
    3.8215    2.5488   -1.3504 C   0  0  1  0  0  0
    2.8178    2.1391   -0.2936 C   0  0  2  0  0  0
    1.4862    1.6557   -0.7971 C   0  0  2  0  0  0
    0.3633    2.6278   -0.6566 C   0  0
   -0.9023    2.1789   -0.8372 C   0  0
   -1.0411    0.7326   -1.1488 C   0  0
   -1.8373    0.3051   -1.9633 O   0  0
   -0.1242   -0.1517   -0.3791 C   0  0
    1.1266    0.3165   -0.2050 C   0  0
    1.6142    1.3872   -2.2900 C   0  0
    3.3689    3.6011   -2.1916 O   0  0
    6.3706    3.3629    1.3414 C   0  0
    5.1435    5.6811   -1.2082 C   0  0
    4.0543    6.0017   -1.6194 O   0  0
    6.3285    5.6745   -2.1392 C   0  0
    5.8839    5.9657   -3.4905 O   0  0
    6.8243    5.9975   -4.4478 C   0  0
    7.9805    5.7890   -4.1661 O   0  0
    6.4378    6.2934   -5.8741 C   0  0
    7.6875    6.2695   -6.7565 C   0  0
    7.2951    6.5699   -8.2045 C   0  0
    8.5448    6.5460   -9.0869 C   0  0
    8.1525    6.8464  -10.5350 C   0  0
    9.4021    6.8225  -11.4174 C   0  0
    9.0157    7.1184  -12.8436 C   0  0
    7.8550    7.3277  -13.1265 O   0  0
    9.9598    7.1504  -13.8049 N   0  0
   11.3618    6.8975  -13.4632 C   0  0
    9.5842    7.4380  -15.1914 C   0  0
    9.6492    8.9471  -15.4348 C   0  0
    9.1841    9.3032  -17.1516 S   0  0
   10.1715    8.7996  -18.0408 O   0  0
    7.8084    9.0118  -17.3565 O   0  0
    6.6414    5.6783    0.6580 O   0  0
    9.2834   10.8167  -17.2779 O   0  5
   -0.9688    4.7263   -1.7423 H   0  0
    0.7145    4.7021   -2.3686 H   0  0
    0.1936    6.0001   -1.2430 H   0  0
   -0.1256    4.2625    0.5691 H   0  0
    1.9128    5.2857    0.8090 H   0  0
    2.4980    4.7645   -0.8056 H   0  0
    1.9655    2.8896    1.5218 H   0  0
    4.1250    2.7757    2.1023 H   0  0
    2.6923    5.1722    2.3301 H   0  0
    4.3582    5.0199    3.0399 H   0  0
    4.7647    6.8534    1.6468 H   0  0
    3.4526    6.3881    0.4870 H   0  0
    5.7889    3.3834   -1.4764 H   0  0
    5.6709    1.9691   -0.4414 H   0  0
    3.9507    1.6734   -2.0038 H   0  0
    3.2666    1.2532    0.1793 H   0  0
   -1.7743    2.8448   -0.7580 H   0  0
   -0.4470   -1.1240    0.0214 H   0  0
    1.8707   -0.2663    0.3577 H   0  0
    2.3752    0.6140   -2.4718 H   0  0
    1.8901    2.3115   -2.8187 H   0  0
    0.6459    1.0323   -2.6727 H   0  0
    4.0421    3.7581   -2.9003 H   0  0
    6.3006    2.3089    1.6481 H   0  0
    6.4971    4.0092    2.2225 H   0  0
    7.2633    3.4736    0.7083 H   0  0
    7.0511    6.4394   -1.8186 H   0  0
    6.8081    4.6848   -2.1171 H   0  0
    5.7260    5.5324   -6.2267 H   0  0
    5.9696    7.2872   -5.9297 H   0  0
    8.3996    7.0306   -6.4047 H   0  0
    8.1565    5.2759   -6.7031 H   0  0
    6.5833    5.8089   -8.5571 H   0  0
    6.8269    7.5637   -8.2601 H   0  0
    9.2569    7.3071   -8.7351 H   0  0
    9.0138    5.5524   -9.0334 H   0  0
    7.4407    6.0855  -10.8876 H   0  0
    7.6843    7.8402  -10.5906 H   0  0
    9.8711    5.8289  -11.3640 H   0  0
   10.1142    7.5835  -11.0656 H   0  0
   11.3656    5.9085  -12.9817 H   0  0
   11.6061    7.6386  -12.6879 H   0  0
   12.0461    6.9484  -14.3229 H   0  0
   10.2796    6.9269  -15.8734 H   0  0
    8.5603    7.0813  -15.3766 H   0  0
    8.9536    9.4589  -14.7534 H   0  0
   10.6728    9.3055  -15.2512 H   0  0
    6.7787    5.4287    1.6061 H   0  0
  1  2  1  0
  2 14  1  0
  2  3  1  0
  3  4  1  0
  4 12  1  0
  4  5  1  0
  5  9  1  0
  5  6  1  0
  6  7  1  0
  7  8  1  0
  8  9  1  0
  8 23  1  0
  8 44  1  0
  9 10  1  0
  9 22  1  0
 10 11  1  0
 11 12  1  0
 11 21  1  0
 12 13  1  0
 13 19  1  0
 13 14  1  0
 13 20  1  0
 14 15  2  0
 15 16  1  0
 16 17  2  0
 16 18  1  0
 18 19  2  0
 23 24  2  0
 23 25  1  0
 25 26  1  0
 26 27  1  0
 27 28  2  0
 27 29  1  0
 29 30  1  0
 30 31  1  0
 31 32  1  0
 32 33  1  0
 33 34  1  0
 34 35  1  0
 35 36  2  0
 35 37  1  0
 37 38  1  0
 37 39  1  0
 39 40  1  0
 40 41  1  0
 41 42  2  0
 41 43  2  0
 41 45  1  0
  1 46  1  0
  1 47  1  0
  1 48  1  0
  2 49  1  0
  3 50  1  0
  3 51  1  0
  4 52  1  0
  5 53  1  0
  6 54  1  0
  6 55  1  0
  7 56  1  0
  7 57  1  0
 10 58  1  0
 10 59  1  0
 11 60  1  0
 12 61  1  0
 15 62  1  0
 18 63  1  0
 19 64  1  0
 20 65  1  0
 20 66  1  0
 20 67  1  0
 21 68  1  0
 22 69  1  0
 22 70  1  0
 22 71  1  0
 25 72  1  0
 25 73  1  0
 29 74  1  0
 29 75  1  0
 30 76  1  0
 30 77  1  0
 31 78  1  0
 31 79  1  0
 32 80  1  0
 32 81  1  0
 33 82  1  0
 33 83  1  0
 34 84  1  0
 34 85  1  0
 38 86  1  0
 38 87  1  0
 38 88  1  0
 39 89  1  0
 39 90  1  0
 40 91  1  0
 40 92  1  0
 44 93  1  0
M  CHG  1  45  -1
M  END
> <Name>
ZINC03831102

> <reference>
BDB50085452

> <quality>
0.703

> <status>
decoy

$$$$
ZINC31976667
  SciTegic06061311253D

 69 68  0  0  1  0            999 V2000
   -1.2955   10.0871   -0.6456 C   0  0
   -0.2138    9.4120   -1.4912 C   0  0  1  0  0  0
    1.1608    9.6966   -0.8827 C   0  0
   -0.4565    7.9017   -1.5188 C   0  0
    0.5491    7.2407   -2.4636 C   0  0  1  0  0  0
    0.3912    5.7434   -2.3976 C   0  0
    0.1031    5.1194   -3.3969 O   0  0
    0.5702    5.0978   -1.2282 N   0  0
    0.4168    3.6423   -1.1641 C   0  0  2  0  0  0
   -1.0592    3.2935   -0.9623 C   0  0
   -1.8592    3.7311   -2.1909 C   0  0  1  0  0  0
   -3.1869    3.3111   -2.0567 F   0  0
   -1.8200    5.1253   -2.3005 F   0  0
    1.2350    3.0943    0.0069 C   0  0  2  0  0  0
    1.1765    1.5884   -0.0006 C   0  0
    2.1986    0.9442   -0.0139 O   0  0
   -0.0110    0.9628    0.0073 O   0  5
    0.6962    3.5857    1.2358 O   0  0
    2.5934    3.5189   -0.1212 O   0  0
    0.3049    7.6976   -3.8340 N   0  0
    0.8516    8.8507   -4.2673 C   0  0
    1.5457    9.5102   -3.5228 O   0  0
    0.6004    9.3207   -5.6770 C   0  0  2  0  0  0
    1.1180    8.2725   -6.6639 C   0  0
    0.7523    8.6899   -8.0897 C   0  0
    1.2622    7.6574   -9.0619 C   0  0
    1.8570    6.6872   -8.6559 O   0  0
    1.0555    7.8156  -10.3787 O   0  5
    1.2988   10.5889   -5.9007 N   0  0
    0.8560   11.4451   -6.8427 C   0  0
   -0.1225   11.1651   -7.5064 O   0  0
    1.4978   12.6106   -7.0482 O   0  0
    0.9652   13.4836   -8.0790 C   0  0  1  0  0  0
   -0.4755   13.8635   -7.7312 C   0  0
    1.8195   14.7499   -8.1665 C   0  0
    0.9903   12.7574   -9.4254 C   0  0
   -1.1220   11.1731   -0.6254 H   0  0
   -1.2605    9.6917    0.3803 H   0  0
   -2.2841    9.8829   -1.0825 H   0  0
   -0.2499    9.8079   -2.5168 H   0  0
    1.1980    9.3008    0.1430 H   0  0
    1.3365   10.7823   -0.8627 H   0  0
    1.9390    9.2115   -1.4902 H   0  0
   -1.4783    7.6998   -1.8726 H   0  0
   -0.3314    7.4915   -0.5058 H   0  0
    1.5707    7.5153   -2.1621 H   0  0
    0.8149    5.6277   -0.3795 H   0  0
    0.7745    3.1942   -2.1028 H   0  0
   -1.4418    3.8142   -0.0721 H   0  0
   -1.1640    2.2071   -0.8251 H   0  0
   -1.4213    3.2798   -3.0934 H   0  0
   -0.2449    3.2918    1.3255 H   0  0
    2.6328    4.5081   -0.1161 H   0  0
   -0.2846    7.1376   -4.4663 H   0  0
   -0.4795    9.4652   -5.8284 H   0  0
    2.2115    8.1931   -6.5747 H   0  0
    0.6601    7.2979   -6.4391 H   0  0
    1.2103    9.6639   -8.3167 H   0  0
   -0.3412    8.7690   -8.1797 H   0  0
    2.1283   10.8262   -5.3381 H   0  0
   -0.4946   14.3859   -6.7634 H   0  0
   -1.0907   12.9538   -7.6683 H   0  0
   -0.8796   14.5249   -8.5117 H   0  0
    2.8556   14.4779   -8.4167 H   0  0
    1.8019   15.2729   -7.1989 H   0  0
    1.4165   15.4117   -8.9473 H   0  0
    0.3761   11.8470   -9.3636 H   0  0
    2.0258   12.4840   -9.6765 H   0  0
    0.5869   13.4182  -10.2068 H   0  0
  1  2  1  0
  2  3  1  0
  2  4  1  0
  4  5  1  0
  5  6  1  0
  5 20  1  0
  6  7  2  0
  6  8  1  0
  8  9  1  0
  9 10  1  0
  9 14  1  0
 10 11  1  0
 11 12  1  0
 11 13  1  0
 14 15  1  0
 14 18  1  0
 14 19  1  0
 15 16  2  0
 15 17  1  0
 20 21  1  0
 21 22  2  0
 21 23  1  0
 23 24  1  0
 23 29  1  0
 24 25  1  0
 25 26  1  0
 26 27  2  0
 26 28  1  0
 29 30  1  0
 30 31  2  0
 30 32  1  0
 32 33  1  0
 33 34  1  0
 33 35  1  0
 33 36  1  0
  1 37  1  0
  1 38  1  0
  1 39  1  0
  2 40  1  0
  3 41  1  0
  3 42  1  0
  3 43  1  0
  4 44  1  0
  4 45  1  0
  5 46  1  0
  8 47  1  0
  9 48  1  0
 10 49  1  0
 10 50  1  0
 11 51  1  0
 18 52  1  0
 19 53  1  0
 20 54  1  0
 23 55  1  0
 24 56  1  0
 24 57  1  0
 25 58  1  0
 25 59  1  0
 29 60  1  0
 34 61  1  0
 34 62  1  0
 34 63  1  0
 35 64  1  0
 35 65  1  0
 35 66  1  0
 36 67  1  0
 36 68  1  0
 36 69  1  0
M  CHG  2  17  -1  28  -1
M  END
> <Name>
ZINC31976667

> <reference>
BDB50085452

> <quality>
0.697

> <status>
decoy

$$$$
ZINC24982162
  SciTegic06061311253D

 65 67  0  0  1  0            999 V2000
    2.0245    9.4688   -6.2791 C   0  0
    1.5397    8.7930   -5.0224 C   0  0
    2.3389    7.9509   -4.3988 N   0  0
    1.9537    7.3397   -3.2874 C   0  0
    0.6899    7.5848   -2.7870 C   0  0
   -0.1317    8.4819   -3.4723 C   0  0
    0.3285    9.0601   -4.5780 N   0  0
   -1.4056    8.7655   -3.0077 N   0  0
    0.2120    6.9057   -1.5294 C   0  0
   -0.2396    5.5491   -1.8485 N   0  3
    0.6339    4.3673   -1.6825 C   0  0  2  0  0  0
   -0.5078    3.0369   -2.2403 S   0  0
   -1.9201    4.0662   -2.6124 C   0  0
   -1.5065    5.2889   -2.3226 C   0  0
   -2.4575    6.4413   -2.5191 C   0  0
   -3.2678    3.6407   -3.1357 C   0  0
   -3.2128    3.5364   -4.6612 C   0  0
   -4.4908    3.1330   -5.1574 O   0  0
   -4.7966    2.9225   -6.7240 P   0  0
   -3.8230    1.9635   -7.2922 O   0  0
   -4.6698    4.3331   -7.4897 O   0  5
   -6.2882    2.3448   -6.9068 O   0  0
   -7.0467    1.5610   -8.0910 P   0  0
   -6.6489    2.1345   -9.3961 O   0  0
   -6.6463    0.0023   -8.0454 O   0  5
   -8.6383    1.7121   -7.9012 O   0  5
    1.0365    4.1758   -0.2189 C   0  0  1  0  0  0
    1.8769    5.3442    0.2279 C   0  0
    2.9349    5.7729   -0.5517 C   0  0
    3.7028    6.8477   -0.1442 C   0  0
    3.4189    7.4875    1.0478 C   0  0
    2.3644    7.0553    1.8302 C   0  0
    1.5933    5.9838    1.4201 C   0  0
   -0.1377    4.0960    0.5916 O   0  0
    1.9976    2.6360   -0.0495 P   0  0
    2.9996    2.5578   -1.1359 O   0  0
    2.7483    2.6259    1.3747 O   0  5
    1.0056    1.3713   -0.1424 O   0  0
    1.4673    0.0189   -0.1488 C   0  0
    1.9395   10.5483   -6.0858 H   0  0
    1.2889    9.2117   -7.0555 H   0  0
    3.0465    9.1770   -6.5626 H   0  0
    2.6324    6.6457   -2.7699 H   0  0
   -1.7475    8.3098   -2.1496 H   0  0
   -2.0083    9.4280   -3.5165 H   0  0
    1.0369    6.8557   -0.8034 H   0  0
   -0.6227    7.4771   -1.0973 H   0  0
    1.5883    4.4168   -2.2272 H   0  0
   -2.9053    3.7555   -2.9903 H   0  0
   -1.9459    7.1337   -3.2038 H   0  0
   -2.5282    6.9369   -1.5396 H   0  0
   -3.4423    6.1330   -2.9002 H   0  0
   -3.5337    2.6614   -2.7111 H   0  0
   -4.0258    4.3836   -2.8468 H   0  0
   -2.9473    4.5155   -5.0865 H   0  0
   -2.4560    2.7929   -4.9520 H   0  0
    3.1658    5.2588   -1.4964 H   0  0
    4.5397    7.1938   -0.7685 H   0  0
    4.0321    8.3406    1.3738 H   0  0
    2.1389    7.5640    2.7791 H   0  0
    0.7540    5.6401    2.0425 H   0  0
   -0.6903    3.3285    0.2989 H   0  0
    2.0760   -0.0412    0.7654 H   0  0
    2.1828    0.0035   -0.9841 H   0  0
    0.6974   -0.7639   -0.2158 H   0  0
  1  2  1  0
  2  7  2  0
  2  3  1  0
  3  4  2  0
  4  5  1  0
  5  6  2  0
  5  9  1  0
  6  7  1  0
  6  8  1  0
  9 10  1  0
 10 14  2  0
 10 11  1  0
 11 12  1  0
 11 27  1  0
 12 13  1  0
 13 14  1  0
 13 16  1  0
 14 15  1  0
 16 17  1  0
 17 18  1  0
 18 19  1  0
 19 20  2  0
 19 21  1  0
 19 22  1  0
 22 23  1  0
 23 24  2  0
 23 25  1  0
 23 26  1  0
 27 28  1  0
 27 34  1  0
 27 35  1  0
 28 33  2  0
 28 29  1  0
 29 30  2  0
 30 31  1  0
 31 32  2  0
 32 33  1  0
 35 36  2  0
 35 37  1  0
 35 38  1  0
 38 39  1  0
  1 40  1  0
  1 41  1  0
  1 42  1  0
  4 43  1  0
  8 44  1  0
  8 45  1  0
  9 46  1  0
  9 47  1  0
 11 48  1  0
 13 49  1  0
 15 50  1  0
 15 51  1  0
 15 52  1  0
 16 53  1  0
 16 54  1  0
 17 55  1  0
 17 56  1  0
 29 57  1  0
 30 58  1  0
 31 59  1  0
 32 60  1  0
 33 61  1  0
 34 62  1  0
 39 63  1  0
 39 64  1  0
 39 65  1  0
M  CHG  5  10   1  21  -1  25  -1  26  -1  37  -1
M  END
> <Name>
ZINC24982162

> <reference>
BDB50085452

> <quality>
0.695

> <status>
decoy

$$$$
ZINC13610576
  SciTegic06061311253D

 57 59  0  0  0  0            999 V2000
   -1.3050    1.7450    0.3757 C   0  0
   -0.0654    1.1869    0.6200 C   0  0
    1.0384    2.0079    0.8119 C   0  0
    0.8903    3.3884    0.7626 C   0  0
   -0.3528    3.9398    0.5232 C   0  0
   -1.4498    3.1194    0.3325 C   0  0
   -3.0343    3.8272    0.0273 S   0  0
   -3.9938    2.9057    0.5268 O   0  0
   -2.9693    5.1753    0.4719 O   0  0
   -3.2388    3.8798   -1.6152 N   0  0
   -3.2778    2.6935   -2.3528 C   0  0
   -2.1887    2.3254   -3.1296 C   0  0
   -2.2221    1.1379   -3.8635 C   0  0
   -3.3554    0.3277   -3.8239 C   0  0
   -4.4498    0.7033   -3.0470 C   0  0
   -4.4076    1.8893   -2.3112 C   0  0
   -5.6533   -0.1528   -3.0017 C   0  0
   -6.6066    0.1749   -2.3240 O   0  0
   -5.6932   -1.2968   -3.7118 O   0  5
   -1.0596    0.7439   -4.6861 C   0  0
   -0.0722    1.4505   -4.7201 O   0  0
   -1.0949   -0.3989   -5.3984 O   0  5
    2.0636    4.2671    0.9670 N   0  0
    1.9163    5.4744    1.0320 O   0  0
    3.1765    3.7829    1.0703 O   0  0
    2.2945    1.4468    1.0534 N   0  0
    2.4275   -0.0008    1.2349 C   0  0
    3.8961   -0.3509    1.4829 C   0  0
    4.0350   -1.8627    1.6724 C   0  0
    5.4451   -2.1989    1.9105 N   0  0
    6.2603   -1.9262    0.7179 C   0  0
    7.7277   -2.2332    1.0284 C   0  0
    7.8437   -3.5902    1.4648 O   0  0
    7.0630   -3.8906    2.6249 C   0  0
    5.5889   -3.6004    2.3306 C   0  0
   -2.1780    1.0953    0.2153 H   0  0
    0.0475    0.0935    0.6625 H   0  0
   -0.4707    5.0328    0.4841 H   0  0
   -3.3372    4.7869   -2.0931 H   0  0
   -1.2980    2.9697   -3.1674 H   0  0
   -3.3860   -0.6061   -4.4045 H   0  0
   -5.2711    2.1863   -1.6979 H   0  0
    3.1273    2.0508    1.1039 H   0  0
    1.8244   -0.3192    2.0980 H   0  0
    2.0756   -0.5187    0.3305 H   0  0
    4.4997   -0.0331    0.6200 H   0  0
    4.2495    0.1653    2.3877 H   0  0
    3.6830   -2.3806    0.7680 H   0  0
    3.4319   -2.1811    2.5355 H   0  0
    6.1590   -0.8676    0.4366 H   0  0
    5.9205   -2.5623   -0.1127 H   0  0
    8.3334   -2.0864    0.1220 H   0  0
    8.0845   -1.5610    1.8227 H   0  0
    7.1829   -4.9530    2.8835 H   0  0
    7.3984   -3.2665    3.4664 H   0  0
    4.9926   -3.7749    3.2383 H   0  0
    5.2383   -4.2639    1.5263 H   0  0
  1  6  2  0
  1  2  1  0
  2  3  2  0
  3  4  1  0
  3 26  1  0
  4  5  2  0
  4 23  1  0
  5  6  1  0
  6  7  1  0
  7  8  2  0
  7  9  2  0
  7 10  1  0
 10 11  1  0
 11 16  2  0
 11 12  1  0
 12 13  2  0
 13 14  1  0
 13 20  1  0
 14 15  2  0
 15 16  1  0
 15 17  1  0
 17 18  2  0
 17 19  1  0
 20 21  2  0
 20 22  1  0
 23 24  2  0
 23 25  2  0
 26 27  1  0
 27 28  1  0
 28 29  1  0
 29 30  1  0
 30 35  1  0
 30 31  1  0
 31 32  1  0
 32 33  1  0
 33 34  1  0
 34 35  1  0
  1 36  1  0
  2 37  1  0
  5 38  1  0
 10 39  1  0
 12 40  1  0
 14 41  1  0
 16 42  1  0
 26 43  1  0
 27 44  1  0
 27 45  1  0
 28 46  1  0
 28 47  1  0
 29 48  1  0
 29 49  1  0
 31 50  1  0
 31 51  1  0
 32 52  1  0
 32 53  1  0
 34 54  1  0
 34 55  1  0
 35 56  1  0
 35 57  1  0
M  CHG  2  19  -1  22  -1
M  END
> <Name>
ZINC13610576

> <reference>
BDB50085452

> <quality>
0.689

> <status>
decoy

$$$$
ZINC14975210
  SciTegic06061311253D

 91 95  0  0  1  0            999 V2000
   -2.8180   13.8857   -3.1450 C   0  0
   -3.8159   13.0514   -2.3840 C   0  0
   -4.9995   13.2551   -2.5164 O   0  0
   -3.3899   12.0820   -1.5590 O   0  0
   -4.4070   11.3184   -0.8585 C   0  0  2  0  0  0
   -4.7350   12.0066    0.4613 C   0  0
   -5.7399   11.1400    1.2261 C   0  0  1  0  0  0
   -5.0715    9.8077    1.5926 C   0  0  2  0  0  0
   -4.2075   10.1586    2.8242 C   0  0
   -5.0562   11.1866    3.6017 C   0  0
   -6.0255   11.8157    2.5854 C   0  0  2  0  0  0
   -7.3766   11.5691    2.9802 O   0  0
   -4.2048    9.2571    0.4980 C   0  0
   -3.8959    9.9158   -0.6067 C   0  0
   -3.0270    9.3237   -1.6823 C   0  0  1  0  0  0
   -1.9380   10.3188   -2.0934 C   0  0  2  0  0  0
   -1.0997    9.7262   -3.1250 O   0  0
   -0.4775    8.5617   -2.8032 C   0  0
    0.7107    8.3921   -2.9980 O   0  0
   -1.3339    7.5073   -2.1986 C   0  0
   -1.1653    6.1605   -2.4598 C   0  0
   -2.1210    5.2766   -2.0959 N   0  3
   -1.7600    4.0817   -1.3290 C   0  0
   -3.5179    5.5135   -2.4685 C   0  0
   -3.8366    4.7576   -3.7599 C   0  0
   -5.3265    4.8974   -4.0783 C   0  0
   -5.0838    4.9229   -6.4877 C   0  0
   -5.3481    4.1204   -7.7639 C   0  0
   -7.3376    3.1770   -6.7585 C   0  0
   -7.0733    3.9795   -5.4824 C   0  0
   -7.0949    3.2025   -9.1679 C   0  0
   -2.3872    8.0270   -1.2972 C   0  5
   -2.7305    7.3436   -0.1846 C   0  0
   -3.6776    7.8877    0.7107 C   0  0
   -4.0633    7.2290    1.6614 O   0  0
   -2.1691    6.1309    0.0718 O   0  0
   -1.0791   10.6652   -0.8756 C   0  0
   -0.1391   11.6817   -1.2293 O   0  0
    0.7170   12.0803   -0.1568 C   0  0
   -3.9048    9.0516   -2.9056 C   0  0
   -7.0280   10.9182    0.4307 C   0  0
   -5.6150    4.1695   -5.3325 N   0  0
   -6.8064    3.9304   -7.9137 N   0  3
   -3.0320   14.9277   -2.8648 H   0  0
   -3.0822   13.7644   -4.2059 H   0  0
   -1.7740   13.6056   -2.9411 H   0  0
   -5.3204   11.2618   -1.4688 H   0  0
   -5.1763   12.9946    0.2638 H   0  0
   -3.8171   12.1190    1.0570 H   0  0
   -5.8239    9.0264    1.7759 H   0  0
   -4.0432    9.2616    3.4394 H   0  0
   -3.2594   10.6158    2.5048 H   0  0
   -4.4051   11.9647    4.0267 H   0  0
   -5.6251   10.6782    4.3941 H   0  0
   -5.8858   12.9051    2.5248 H   0  0
   -7.5207   10.5929    3.0602 H   0  0
   -2.4074   11.2333   -2.4850 H   0  0
   -0.2533    5.8080   -2.9638 H   0  0
   -1.5561    5.2939   -1.2348 H   0  0
   -1.2529    4.4610   -0.4296 H   0  0
   -1.0018    3.5683   -1.9386 H   0  0
   -2.6142    3.4323   -1.0869 H   0  0
   -3.6791    6.5902   -2.6255 H   0  0
   -4.1777    5.1575   -1.6636 H   0  0
   -3.5876    3.6936   -3.6342 H   0  0
   -3.2446    5.1776   -4.5864 H   0  0
   -5.9204    4.4675   -3.2583 H   0  0
   -5.5793    5.9606   -4.2036 H   0  0
   -5.5879    5.8983   -6.5538 H   0  0
   -4.0010    5.0714   -6.3636 H   0  0
   -4.9576    4.6707   -8.6326 H   0  0
   -4.8549    3.1397   -7.6923 H   0  0
   -8.4203    3.0277   -6.8833 H   0  0
   -6.8328    2.2019   -6.6916 H   0  0
   -7.5665    4.9600   -5.5551 H   0  0
   -7.4638    3.4301   -4.6131 H   0  0
   -6.5984    2.2213   -9.1413 H   0  0
   -6.7113    3.7816  -10.0209 H   0  0
   -8.1808    3.0634   -9.2753 H   0  0
   -1.7247   11.0302   -0.0632 H   0  0
   -0.5387    9.7680   -0.5395 H   0  0
    1.2548   11.1850    0.1885 H   0  0
    0.0769   12.4392    0.6626 H   0  0
    1.4229   12.8626   -0.4725 H   0  0
   -4.3478    9.9901   -3.2703 H   0  0
   -4.7027    8.3395   -2.6484 H   0  0
   -3.2820    8.6177   -3.7017 H   0  0
   -6.7688   10.4298   -0.5202 H   0  0
   -7.4762   11.8994    0.2156 H   0  0
   -7.7327   10.2941    0.9998 H   0  0
   -7.2627    4.8531   -7.9504 H   0  0
  1  2  1  0
  2  3  2  0
  2  4  1  0
  4  5  1  0
  5 14  1  0
  5  6  1  0
  6  7  1  0
  7 11  1  0
  7  8  1  0
  7 41  1  0
  8  9  1  0
  8 13  1  0
  9 10  1  0
 10 11  1  0
 11 12  1  0
 13 34  1  0
 13 14  2  0
 14 15  1  0
 15 32  1  0
 15 16  1  0
 15 40  1  0
 16 17  1  0
 16 37  1  0
 17 18  1  0
 18 19  2  0
 18 20  1  0
 20 21  2  0
 20 32  1  0
 21 22  1  0
 22 23  1  0
 22 24  1  0
 24 25  1  0
 25 26  1  0
 26 42  1  0
 27 28  1  0
 27 42  1  0
 28 43  1  0
 29 30  1  0
 29 43  1  0
 30 42  1  0
 31 43  1  0
 32 33  1  0
 33 34  1  0
 33 36  2  0
 34 35  2  0
 37 38  1  0
 38 39  1  0
  1 44  1  0
  1 45  1  0
  1 46  1  0
  5 47  1  0
  6 48  1  0
  6 49  1  0
  8 50  1  0
  9 51  1  0
  9 52  1  0
 10 53  1  0
 10 54  1  0
 11 55  1  0
 12 56  1  0
 16 57  1  0
 21 58  1  0
 22 59  1  0
 23 60  1  0
 23 61  1  0
 23 62  1  0
 24 63  1  0
 24 64  1  0
 25 65  1  0
 25 66  1  0
 26 67  1  0
 26 68  1  0
 27 69  1  0
 27 70  1  0
 28 71  1  0
 28 72  1  0
 29 73  1  0
 29 74  1  0
 30 75  1  0
 30 76  1  0
 31 77  1  0
 31 78  1  0
 31 79  1  0
 37 80  1  0
 37 81  1  0
 39 82  1  0
 39 83  1  0
 39 84  1  0
 40 85  1  0
 40 86  1  0
 40 87  1  0
 41 88  1  0
 41 89  1  0
 41 90  1  0
 43 91  1  0
M  CHG  3  22   1  32  -1  43   1
M  END
> <Name>
ZINC14975210

> <reference>
BDB50085452

> <quality>
0.685

> <status>
decoy

$$$$
ZINC31424828
  SciTegic06061311253D

 80 82  0  0  1  0            999 V2000
   -0.6090    5.1285    6.2628 C   0  0
   -1.4573    5.5706    5.0687 C   0  0
   -0.6299    5.4598    3.7865 C   0  0
   -1.4782    5.9019    2.5924 C   0  0
   -0.6151    5.9110    1.3291 C   0  0  2  0  0  0
   -1.4233    6.4843    0.1634 C   0  0
   -1.7437    7.9311    0.4377 C   0  0
   -1.3631    8.4523    1.4645 O   0  0
   -2.4532    8.6457   -0.4580 N   0  0
   -2.7542   10.0051   -0.2003 O   0  0
   -0.1899    4.5029    1.0012 C   0  0
   -0.9414    3.5762    1.2190 O   0  0
    1.0254    4.2734    0.4657 N   0  0
    1.4091    2.9208    0.0400 C   0  0  2  0  0  0
    1.8713    2.9809   -1.4208 C   0  0
    2.9320    4.0781   -1.5589 C   0  0
    2.3406    5.4115   -1.0938 C   0  0
    1.9206    5.2973    0.3101 N   0  0
    0.2237    1.9978    0.1581 C   0  0
   -0.8365    2.3051   -0.3443 O   0  0
    0.3433    0.8283    0.8172 N   0  0
   -0.8337   -0.0187    1.0256 C   0  0  2  0  0  0
   -0.6617   -0.8148    2.2935 C   0  0
    0.4954   -1.3528    2.7494 C   0  0
    0.2209   -2.0098    3.9553 C   0  0
   -1.0491   -1.8720    4.2124 N   0  3
   -1.6269   -1.1143    3.1792 N   0  0
   -3.0446   -0.7423    3.1243 C   0  0  1  0  0  0
   -3.6499   -0.9387    4.5194 C   0  0
   -3.2900   -2.3322    5.0412 C   0  0
   -1.7943   -2.3928    5.3641 C   0  0
   -3.1750    0.7014    2.7122 C   0  0
   -2.2722    1.4750    2.9274 O   0  0
   -4.2941    1.1279    2.1060 O   0  5
   -0.9906   -0.9742   -0.1591 C   0  0  1  0  0  0
    0.2205   -1.9067   -0.2261 C   0  0
   -2.2637   -1.8037    0.0198 C   0  0
   -3.4867   -0.8905   -0.0868 C   0  0
    0.2781    5.7740    6.3428 H   0  0
   -0.2909    4.0850    6.1216 H   0  0
   -1.2033    5.2079    7.1850 H   0  0
   -2.3439    4.9244    4.9893 H   0  0
   -1.7755    6.6141    5.2098 H   0  0
   -0.3117    4.4166    3.6431 H   0  0
    0.2567    6.1061    3.8651 H   0  0
   -2.3160    5.2018    2.4584 H   0  0
   -1.8709    6.9131    2.7745 H   0  0
    0.2761    6.5332    1.4983 H   0  0
   -2.3591    5.9173    0.0507 H   0  0
   -0.8350    6.4089   -0.7630 H   0  0
   -2.7765    8.2030   -1.3300 H   0  0
   -1.8768   10.4396   -0.0540 H   0  0
    2.2222    2.5422    0.6768 H   0  0
    2.3045    2.0121   -1.7103 H   0  0
    1.0145    3.2142   -2.0700 H   0  0
    3.2411    4.1614   -2.6113 H   0  0
    3.8039    3.8267   -0.9371 H   0  0
    3.1003    6.2017   -1.1857 H   0  0
    1.4702    5.6651   -1.7168 H   0  0
    2.2541    5.9045    1.0724 H   0  0
    1.2622    0.5300    1.1744 H   0  0
   -1.7302    0.6133    1.1083 H   0  0
    1.4775   -1.2853    2.2586 H   0  0
    0.9507   -2.5486    4.5775 H   0  0
   -3.5728   -1.3695    2.3910 H   0  0
   -4.7440   -0.8407    4.4626 H   0  0
   -3.2487   -0.1767    5.2038 H   0  0
   -3.8694   -2.5430    5.9522 H   0  0
   -3.5290   -3.0842    4.2748 H   0  0
   -1.5003   -3.4357    5.5536 H   0  0
   -1.5838   -1.7769    6.2509 H   0  0
   -1.0588   -0.3943   -1.0913 H   0  0
    0.2895   -2.4873    0.7056 H   0  0
    1.1364   -1.3112   -0.3551 H   0  0
    0.1083   -2.5939   -1.0776 H   0  0
   -2.3126   -2.5741   -0.7638 H   0  0
   -2.2524   -2.2862    1.0083 H   0  0
   -3.5002   -0.4080   -1.0752 H   0  0
   -3.4393   -0.1195    0.6963 H   0  0
   -4.4024   -1.4863    0.0417 H   0  0
  1  2  1  0
  2  3  1  0
  3  4  1  0
  4  5  1  0
  5  6  1  0
  5 11  1  0
  6  7  1  0
  7  8  2  0
  7  9  1  0
  9 10  1  0
 11 12  2  0
 11 13  1  0
 13 18  1  0
 13 14  1  0
 14 15  1  0
 14 19  1  0
 15 16  1  0
 16 17  1  0
 17 18  1  0
 19 20  2  0
 19 21  1  0
 21 22  1  0
 22 23  1  0
 22 35  1  0
 23 27  1  0
 23 24  2  0
 24 25  1  0
 25 26  2  0
 26 31  1  0
 26 27  1  0
 27 28  1  0
 28 29  1  0
 28 32  1  0
 29 30  1  0
 30 31  1  0
 32 33  2  0
 32 34  1  0
 35 36  1  0
 35 37  1  0
 37 38  1  0
  1 39  1  0
  1 40  1  0
  1 41  1  0
  2 42  1  0
  2 43  1  0
  3 44  1  0
  3 45  1  0
  4 46  1  0
  4 47  1  0
  5 48  1  0
  6 49  1  0
  6 50  1  0
  9 51  1  0
 10 52  1  0
 14 53  1  0
 15 54  1  0
 15 55  1  0
 16 56  1  0
 16 57  1  0
 17 58  1  0
 17 59  1  0
 18 60  1  0
 21 61  1  0
 22 62  1  0
 24 63  1  0
 25 64  1  0
 28 65  1  0
 29 66  1  0
 29 67  1  0
 30 68  1  0
 30 69  1  0
 31 70  1  0
 31 71  1  0
 35 72  1  0
 36 73  1  0
 36 74  1  0
 36 75  1  0
 37 76  1  0
 37 77  1  0
 38 78  1  0
 38 79  1  0
 38 80  1  0
M  CHG  2  26   1  34  -1
M  END
> <Name>
ZINC31424828

> <reference>
BDB50085452

> <quality>
0.682

> <status>
decoy

$$$$
ZINC17313921
  SciTegic06061311253D

 69 68  0  0  1  0            999 V2000
    6.5539    8.6558    9.8500 C   0  0
    6.2734    9.2289    8.4594 C   0  0
    5.7842    7.8878    7.3402 S   0  0
    5.4914    8.7227    5.7566 C   0  0
    5.0662    7.6928    4.7080 C   0  0
    4.8229    8.3864    3.3924 C   0  0
    4.9748    9.5865    3.3023 O   0  0
    4.4367    7.6733    2.3160 N   0  0
    4.2106    8.3181    1.0929 N   0  0
    3.7438    7.6600    0.0991 C   0  0
    3.2791    6.2389    0.2878 C   0  0  2  0  0  0
    4.2329    5.2895   -0.4402 C   0  0  2  0  0  0
    3.7612    3.8467   -0.2486 C   0  0  2  0  0  0
    4.7150    2.8974   -0.9765 C   0  0  2  0  0  0
    4.2432    1.4546   -0.7849 C   0  0
    5.0645    0.5781   -1.5591 O   0  0
    6.0321    3.0429   -0.4418 O   0  0
    2.4440    3.7012   -0.7833 O   0  0
    5.5500    5.4350    0.0946 O   0  0
    1.9620    6.0933   -0.2470 O   0  0
    6.9604    9.7699   10.7799 C   0  0
    7.0199   10.9102   10.3706 O   0  0
    7.2578    9.4993   12.0663 N   0  0
    7.6357   10.5351   12.9307 N   0  0
    7.9182   10.2781   14.1525 C   0  0
    8.3246   11.3922   15.0823 C   0  0  1  0  0  0
    9.7302   11.1192   15.6215 C   0  0  1  0  0  0
   10.1428   12.2504   16.5656 C   0  0  1  0  0  0
   11.5484   11.9774   17.1048 C   0  0  1  0  0  0
   11.9611   13.1086   18.0488 C   0  0
   13.3155   12.9147   18.4610 O   0  0
   11.5535   10.7379   17.8158 O   0  0
   10.1378   13.4899   15.8546 O   0  0
    9.7352    9.8797   16.3325 O   0  0
    8.3196   12.6317   14.3713 O   0  0
    7.3667    7.9174    9.7864 H   0  0
    5.6460    8.1694   10.2362 H   0  0
    5.4602    9.9668    8.5239 H   0  0
    7.1807    9.7158    8.0723 H   0  0
    4.6948    9.4714    5.8785 H   0  0
    6.4153    9.2205    5.4270 H   0  0
    4.1418    7.1947    5.0355 H   0  0
    5.8626    6.9440    4.5853 H   0  0
    4.3078    6.6543    2.3925 H   0  0
    3.6819    8.1318   -0.8927 H   0  0
    3.2681    5.9962    1.3606 H   0  0
    4.2439    5.5323   -1.5130 H   0  0
    3.7502    3.6039    0.8242 H   0  0
    4.7260    3.1402   -2.0493 H   0  0
    4.3178    1.1824    0.2783 H   0  0
    3.1978    1.3627   -1.1144 H   0  0
    6.0057    0.6589   -1.2630 H   0  0
    6.0233    2.8244    0.5237 H   0  0
    2.4529    3.9193   -1.7489 H   0  0
    5.5411    5.2165    1.0601 H   0  0
    1.9710    6.3114   -1.2126 H   0  0
    7.2073    8.5310   12.4139 H   0  0
    7.8643    9.2440   14.5237 H   0  0
    7.6146   11.4475   15.9206 H   0  0
   10.4402   11.0639   14.7832 H   0  0
    9.4328   12.3057   17.4039 H   0  0
   12.2584   11.9220   16.2664 H   0  0
   11.3060   13.1077   18.9324 H   0  0
   11.8716   14.0728   17.5270 H   0  0
   13.9066   12.9164   17.6668 H   0  0
   11.2868   10.0053   17.2056 H   0  0
    9.2286   13.6675   15.5055 H   0  0
    9.4685    9.1471   15.7224 H   0  0
    7.4104   12.8093   14.0222 H   0  0
  1  2  1  0
  1 21  1  0
  2  3  1  0
  3  4  1  0
  4  5  1  0
  5  6  1  0
  6  7  2  0
  6  8  1  0
  8  9  1  0
  9 10  2  0
 10 11  1  0
 11 12  1  0
 11 20  1  0
 12 13  1  0
 12 19  1  0
 13 14  1  0
 13 18  1  0
 14 15  1  0
 14 17  1  0
 15 16  1  0
 21 22  2  0
 21 23  1  0
 23 24  1  0
 24 25  2  0
 25 26  1  0
 26 27  1  0
 26 35  1  0
 27 28  1  0
 27 34  1  0
 28 29  1  0
 28 33  1  0
 29 30  1  0
 29 32  1  0
 30 31  1  0
  1 36  1  0
  1 37  1  0
  2 38  1  0
  2 39  1  0
  4 40  1  0
  4 41  1  0
  5 42  1  0
  5 43  1  0
  8 44  1  0
 10 45  1  0
 11 46  1  0
 12 47  1  0
 13 48  1  0
 14 49  1  0
 15 50  1  0
 15 51  1  0
 16 52  1  0
 17 53  1  0
 18 54  1  0
 19 55  1  0
 20 56  1  0
 23 57  1  0
 25 58  1  0
 26 59  1  0
 27 60  1  0
 28 61  1  0
 29 62  1  0
 30 63  1  0
 30 64  1  0
 31 65  1  0
 32 66  1  0
 33 67  1  0
 34 68  1  0
 35 69  1  0
M  END
> <Name>
ZINC17313921

> <reference>
BDB50085452

> <quality>
0.682

> <status>
decoy

$$$$
ZINC05822746
  SciTegic06061311253D

 71 74  0  0  1  0            999 V2000
   -3.3868   -2.8731   -2.1409 C   0  0
   -2.2643   -1.8717   -2.2316 C   0  0
   -1.6655   -1.4120   -1.1121 C   0  0
   -0.6474   -0.5032   -1.2126 N   0  0
   -0.2411   -0.0596   -2.4160 C   0  0
    0.6623    0.7515   -2.4820 O   0  0
   -0.8170   -0.5050   -3.5481 N   0  0
   -1.8233   -1.4006   -3.4917 C   0  0
   -2.3483   -1.8004   -4.5153 O   0  0
    0.0021   -0.0041    0.0020 C   0  0  1  0  0  0
    1.4796   -0.4507    0.0295 C   0  0
    2.1925    0.8037    0.6040 C   0  0  1  0  0  0
    1.3259    1.9371   -0.0002 C   0  0  1  0  0  0
   -0.0173    1.4282    0.0099 O   0  0
    1.4229    3.1971    0.8623 C   0  0
    0.6584    4.2449    0.2626 O   0  0
    0.5354    5.7172    0.9024 P   0  0  1  0  0  0
    0.2840    5.6039    2.3565 O   0  0
    1.9681    6.5621    0.6450 N   0  0
    2.2506    6.6944   -0.7905 C   0  0  1  0  0  0
    2.9163    8.0460   -1.0568 C   0  0
    1.9471    9.1549   -0.7374 C   0  0
    1.1431    9.7876   -1.6064 C   0  0
    0.4024   10.7344   -0.9526 N   0  0
    0.7265   10.7403    0.3856 C   0  0
    1.7083    9.7512    0.5792 C   0  0
    2.2318    9.5295    1.8541 C   0  0
    1.7877   10.2761    2.9091 C   0  0
    0.8195   11.2529    2.7234 C   0  0
    0.2890   11.4881    1.4736 C   0  0
    3.1739    5.5854   -1.2250 C   0  0
    3.5572    4.7687   -0.4213 O   0  0
    3.5704    5.5050   -2.5048 O   0  0
    4.4597    4.4109   -2.8519 C   0  0
   -0.6844    6.5046    0.2066 O   0  0
   -1.1836    7.7522    0.6927 C   0  0
   -2.3377    8.2207   -0.1959 C   0  0
   -2.8520    9.5058    0.3049 C   0  0
   -3.2488   10.4976    0.6913 N   0  0
    2.1369    0.8185    2.0679 N   0  0
    2.6870    0.0367    2.6592 N   0  3
    3.2371   -0.7450    3.2504 N   0  5
   -3.0551   -3.7232   -2.7552 H   0  0
   -4.2273   -2.4017   -2.6713 H   0  0
   -3.6458   -3.1680   -1.1133 H   0  0
   -1.9945   -1.7663   -0.1241 H   0  0
   -0.4877   -0.1603   -4.4611 H   0  0
   -0.5384   -0.4038    0.8727 H   0  0
    1.6079   -1.3067    0.7083 H   0  0
    1.8364   -0.6586   -0.9900 H   0  0
    3.2633    0.8707    0.3614 H   0  0
    1.6551    2.2135   -1.0127 H   0  0
    1.0285    2.9851    1.8670 H   0  0
    2.4747    3.5097    0.9397 H   0  0
    2.5672    6.9366    1.3944 H   0  0
    1.3097    6.6312   -1.3568 H   0  0
    3.2092    8.1095   -2.1152 H   0  0
    3.8094    8.1463   -0.4225 H   0  0
    1.0878    9.5763   -2.6845 H   0  0
   -0.2938   11.3508   -1.3955 H   0  0
    2.9990    8.7566    2.0090 H   0  0
    2.2009   10.1014    3.9135 H   0  0
    0.4721   11.8454    3.5826 H   0  0
   -0.4779   12.2647    1.3369 H   0  0
    3.9356    3.4849   -2.5727 H   0  0
    5.3414    4.5098   -2.2016 H   0  0
    4.7388    4.4133   -3.9159 H   0  0
   -1.5437    7.6263    1.7244 H   0  0
   -0.3795    8.5025    0.6740 H   0  0
   -3.1434    7.4720   -0.1776 H   0  0
   -1.9781    8.3473   -1.2277 H   0  0
  1  2  1  0
  2  8  1  0
  2  3  2  0
  3  4  1  0
  4  5  1  0
  4 10  1  0
  5  6  2  0
  5  7  1  0
  7  8  1  0
  8  9  2  0
 10 14  1  0
 10 11  1  0
 11 12  1  0
 12 13  1  0
 12 40  1  0
 13 14  1  0
 13 15  1  0
 15 16  1  0
 16 17  1  0
 17 18  2  0
 17 19  1  0
 17 35  1  0
 19 20  1  0
 20 21  1  0
 20 31  1  0
 21 22  1  0
 22 26  1  0
 22 23  2  0
 23 24  1  0
 24 25  1  0
 25 30  2  0
 25 26  1  0
 26 27  2  0
 27 28  1  0
 28 29  2  0
 29 30  1  0
 31 32  2  0
 31 33  1  0
 33 34  1  0
 35 36  1  0
 36 37  1  0
 37 38  1  0
 38 39  3  0
 40 41  2  0
 41 42  2  0
  1 43  1  0
  1 44  1  0
  1 45  1  0
  3 46  1  0
  7 47  1  0
 10 48  1  0
 11 49  1  0
 11 50  1  0
 12 51  1  0
 13 52  1  0
 15 53  1  0
 15 54  1  0
 19 55  1  0
 20 56  1  0
 21 57  1  0
 21 58  1  0
 23 59  1  0
 24 60  1  0
 27 61  1  0
 28 62  1  0
 29 63  1  0
 30 64  1  0
 34 65  1  0
 34 66  1  0
 34 67  1  0
 36 68  1  0
 36 69  1  0
 37 70  1  0
 37 71  1  0
M  CHG  2  41   1  42  -1
M  END
> <Name>
ZINC05822746

> <reference>
BDB50085452

> <quality>
0.674

> <status>
decoy

$$$$
ZINC04200793
  SciTegic06061311253D

 72 72  0  0  1  0            999 V2000
   12.2620    1.6988    4.4226 C   0  0
   11.1040    0.9293    3.7840 C   0  0
   10.1233    1.9176    3.1497 C   0  0
    9.0144    1.1808    2.5382 N   0  0
    8.0232    1.8491    1.9159 C   0  0
    8.0492    3.0635    1.8619 O   0  0
    7.0031    1.1712    1.3534 N   0  0
    5.9256    1.8976    0.6770 C   0  0  1  0  0  0
    6.3357    2.1889   -0.7680 C   0  0
    5.2105    2.9476   -1.4744 C   0  0  2  0  0  0
    3.9388    2.0969   -1.4669 C   0  0
    3.5286    1.8056   -0.0219 C   0  0  2  0  0  0
    4.6539    1.0470    0.6845 C   0  0  2  0  0  0
    4.2647    0.7705    2.0558 O   0  0
    3.6169   -0.3872    2.2858 C   0  0
    3.3832   -1.1457    1.3657 O   0  0
    3.2277   -0.7046    3.5364 N   0  0
    2.5228   -1.9643    3.7867 C   0  0
    2.2019   -2.0774    5.2548 C   0  0
    0.9664   -2.2765    5.6418 C   0  0
    2.3218    0.9983   -0.0147 O   0  0
    1.1468    1.6555    0.0000 C   0  0
    1.1303    2.8705    0.0067 O   0  0
   -0.0111    0.9658    0.0074 N   0  0
   -1.2896    1.6810    0.0173 C   0  0
   -2.4216    0.6862    0.0173 C   0  0
   -3.3388    0.7376    0.9512 C   0  0
    5.6144    3.2345   -2.8977 C   0  0
    6.4307    2.5281   -3.4505 O   0  0
    5.0686    4.2761   -3.5561 N   0  0
    5.4613    4.5550   -4.9397 C   0  0  2  0  0  0
    6.7330    5.4057   -4.9473 C   0  0
    4.3529    5.3023   -5.6355 C   0  0
    3.3352    5.5750   -5.0349 O   0  0
    4.4927    5.6675   -6.9253 N   0  0
    4.9641    4.1786   -0.7918 O   0  0
   11.8713    2.3749    5.1974 H   0  0
   12.7821    2.2868    3.6520 H   0  0
   12.9675    0.9888    4.8789 H   0  0
   11.4955    0.2538    3.0092 H   0  0
   10.5839    0.3413    4.5545 H   0  0
    9.7311    2.5932    3.9241 H   0  0
   10.6415    2.5058    2.3780 H   0  0
    8.9923    0.1521    2.5839 H   0  0
    6.9811    0.1424    1.3991 H   0  0
    5.7360    2.8451    1.2026 H   0  0
    7.2497    2.8009   -0.7736 H   0  0
    6.5252    1.2419   -1.2945 H   0  0
    3.1295    2.6424   -1.9743 H   0  0
    4.1274    1.1489   -1.9919 H   0  0
    3.3389    2.7532    0.5036 H   0  0
    4.8435    0.0995    0.1589 H   0  0
    3.4258   -0.0616    4.3162 H   0  0
    3.1603   -2.8086    3.4854 H   0  0
    1.5892   -1.9840    3.2053 H   0  0
    3.0052   -1.9928    6.0015 H   0  0
    0.1631   -2.3611    4.8951 H   0  0
    0.7322   -2.3590    6.7134 H   0  0
    0.0029   -0.0641    0.0061 H   0  0
   -1.3619    2.3176   -0.8769 H   0  0
   -1.3526    2.3073    0.9194 H   0  0
   -2.4777   -0.0831   -0.7669 H   0  0
   -3.2827    1.5069    1.7354 H   0  0
   -4.1651    0.0115    0.9512 H   0  0
    4.3754    4.8760   -3.0866 H   0  0
    5.6509    3.6074   -5.4652 H   0  0
    7.5428    4.8610   -4.4398 H   0  0
    6.5443    6.3537   -4.4223 H   0  0
    7.0284    5.6155   -5.9859 H   0  0
    5.3570    5.4359   -7.4354 H   0  0
    3.7352    6.1783   -7.4009 H   0  0
    5.7864    4.7298   -0.7964 H   0  0
  1  2  1  0
  2  3  1  0
  3  4  1  0
  4  5  1  0
  5  6  2  0
  5  7  1  0
  7  8  1  0
  8 13  1  0
  8  9  1  0
  9 10  1  0
 10 11  1  0
 10 28  1  0
 10 36  1  0
 11 12  1  0
 12 13  1  0
 12 21  1  0
 13 14  1  0
 14 15  1  0
 15 16  2  0
 15 17  1  0
 17 18  1  0
 18 19  1  0
 19 20  2  0
 21 22  1  0
 22 23  2  0
 22 24  1  0
 24 25  1  0
 25 26  1  0
 26 27  2  0
 28 29  2  0
 28 30  1  0
 30 31  1  0
 31 32  1  0
 31 33  1  0
 33 34  2  0
 33 35  1  0
  1 37  1  0
  1 38  1  0
  1 39  1  0
  2 40  1  0
  2 41  1  0
  3 42  1  0
  3 43  1  0
  4 44  1  0
  7 45  1  0
  8 46  1  0
  9 47  1  0
  9 48  1  0
 11 49  1  0
 11 50  1  0
 12 51  1  0
 13 52  1  0
 17 53  1  0
 18 54  1  0
 18 55  1  0
 19 56  1  0
 20 57  1  0
 20 58  1  0
 24 59  1  0
 25 60  1  0
 25 61  1  0
 26 62  1  0
 27 63  1  0
 27 64  1  0
 30 65  1  0
 31 66  1  0
 32 67  1  0
 32 68  1  0
 32 69  1  0
 35 70  1  0
 35 71  1  0
 36 72  1  0
M  END
> <Name>
ZINC04200793

> <reference>
BDB50085452

> <quality>
0.668

> <status>
decoy

$$$$
ZINC16661238
  SciTegic06061311253D

 74 75  0  0  1  0            999 V2000
   -7.3549   -2.8013   -0.5316 C   0  0
   -8.8683   -2.9846   -0.8387 C   0  0
   -8.7963   -3.4404   -2.6225 S   0  0
   -8.9233   -2.2619   -3.4063 O   0  0
   -9.6729   -4.5339   -2.8570 O   0  0
   -7.0587   -4.0360   -2.7149 C   0  0
   -6.5816   -3.9215   -1.2470 C   0  0  1  0  0  0
   -5.1453   -3.6145   -1.2235 N   0  3
   -4.5268   -4.0843    0.0233 C   0  0
   -3.0344   -3.7474    0.0109 C   0  0
   -2.8637   -2.3055    0.0170 O   0  0
   -1.6006   -1.8394    0.0075 C   0  0
   -0.6664   -2.6164   -0.0056 O   0  0
   -1.3723   -0.5112    0.0124 N   0  0
    0.0021   -0.0041    0.0020 C   0  0
   -0.0187    1.5258    0.0104 C   0  0
    1.4167    2.0553   -0.0004 C   0  0
    1.3960    3.5852    0.0080 C   0  0
    2.8313    4.1148   -0.0029 C   0  0
    2.8106    5.6446    0.0055 C   0  0
    4.1850    6.1517   -0.0049 N   0  0
    4.4133    7.4800    0.0001 C   0  0
    3.4791    8.2569    0.0132 O   0  0
    5.6764    7.9460   -0.0095 O   0  0
    5.8471    9.3879   -0.0034 C   0  0
    7.3395    9.7249   -0.0158 C   0  0
    7.9340    9.2685   -1.2792 N   0  3
    9.3697    9.5759   -1.3268 C   0  0  2  0  0  0
    9.5778   11.0028   -1.8609 C   0  0
   11.0683   11.2213   -2.2157 C   0  0
   11.6347    9.5243   -2.6420 S   0  0
   12.6359    9.1249   -1.7161 O   0  0
   11.9060    9.4639   -4.0355 O   0  0
   10.0866    8.5887   -2.2915 C   0  0
   -7.1873   -2.8705    0.5534 H   0  0
   -7.0188   -1.8223   -0.9038 H   0  0
   -9.2879   -3.8174   -0.2552 H   0  0
   -9.4112   -2.0359   -0.7157 H   0  0
   -7.0396   -5.0849   -3.0457 H   0  0
   -6.4687   -3.3728   -3.3646 H   0  0
   -6.7657   -4.8753   -0.7309 H   0  0
   -4.6867   -4.0735   -2.0234 H   0  0
   -5.0133   -2.5962   -1.3045 H   0  0
   -4.6554   -5.1733    0.1100 H   0  0
   -5.0068   -3.5890    0.8802 H   0  0
   -2.5540   -4.1767    0.9025 H   0  0
   -2.5701   -4.1670   -0.8937 H   0  0
   -2.1641    0.1474    0.0235 H   0  0
    0.5341   -0.3679    0.8934 H   0  0
    0.5179   -0.3581   -0.9028 H   0  0
   -0.5501    1.8903   -0.8811 H   0  0
   -0.5332    1.8817    0.9152 H   0  0
    1.9486    1.6914    0.8910 H   0  0
    1.9325    1.7013   -0.9052 H   0  0
    0.8645    3.9497   -0.8834 H   0  0
    0.8815    3.9411    0.9128 H   0  0
    3.3633    3.7510    0.8885 H   0  0
    3.3471    3.7608   -0.9077 H   0  0
    2.2791    6.0091   -0.8859 H   0  0
    2.2961    6.0005    0.9103 H   0  0
    4.9768    5.4931   -0.0160 H   0  0
    5.3844    9.8092    0.9012 H   0  0
    5.3673    9.8179   -0.8950 H   0  0
    7.4706   10.8130    0.0786 H   0  0
    7.8373    9.2212    0.8259 H   0  0
    7.4612    9.7352   -2.0663 H   0  0
    7.8020    8.2509   -1.3687 H   0  0
    9.7834    9.4848   -0.3116 H   0  0
    9.2754   11.7296   -1.0926 H   0  0
    8.9630   11.1495   -2.7612 H   0  0
   11.1642   11.8785   -3.0926 H   0  0
   11.6240   11.5919   -1.3417 H   0  0
   10.3262    7.6454   -1.7788 H   0  0
    9.5094    8.4578   -3.2187 H   0  0
  1  7  1  0
  1  2  1  0
  2  3  1  0
  3  4  2  0
  3  5  2  0
  3  6  1  0
  6  7  1  0
  7  8  1  0
  8  9  1  0
  9 10  1  0
 10 11  1  0
 11 12  1  0
 12 13  2  0
 12 14  1  0
 14 15  1  0
 15 16  1  0
 16 17  1  0
 17 18  1  0
 18 19  1  0
 19 20  1  0
 20 21  1  0
 21 22  1  0
 22 23  2  0
 22 24  1  0
 24 25  1  0
 25 26  1  0
 26 27  1  0
 27 28  1  0
 28 34  1  0
 28 29  1  0
 29 30  1  0
 30 31  1  0
 31 32  2  0
 31 33  2  0
 31 34  1  0
  1 35  1  0
  1 36  1  0
  2 37  1  0
  2 38  1  0
  6 39  1  0
  6 40  1  0
  7 41  1  0
  8 42  1  0
  8 43  1  0
  9 44  1  0
  9 45  1  0
 10 46  1  0
 10 47  1  0
 14 48  1  0
 15 49  1  0
 15 50  1  0
 16 51  1  0
 16 52  1  0
 17 53  1  0
 17 54  1  0
 18 55  1  0
 18 56  1  0
 19 57  1  0
 19 58  1  0
 20 59  1  0
 20 60  1  0
 21 61  1  0
 25 62  1  0
 25 63  1  0
 26 64  1  0
 26 65  1  0
 27 66  1  0
 27 67  1  0
 28 68  1  0
 29 69  1  0
 29 70  1  0
 30 71  1  0
 30 72  1  0
 34 73  1  0
 34 74  1  0
M  CHG  2   8   1  27   1
M  END
> <Name>
ZINC16661238

> <reference>
BDB50085452

> <quality>
0.666

> <status>
decoy

$$$$
ZINC04475072
  SciTegic06061311253D

 58 60  0  0  1  0            999 V2000
   -6.6547   -2.6493    7.5663 C   0  0
   -7.5019   -2.2315    6.3627 C   0  0
   -6.7302   -2.4293    5.1285 N   0  0
   -7.6168   -2.5047    3.9596 C   0  0
   -8.3669   -3.8381    3.9737 C   0  0
   -5.7842   -1.4318    4.9698 C   0  0
   -4.9300   -1.4218    3.8537 C   0  0
   -3.9901   -0.3830    3.7472 C   0  0
   -3.9423    0.5449    4.6977 N   0  0
   -4.7623    0.4949    5.7260 C   0  0
   -5.6622   -0.4612    5.8691 N   0  0
   -3.3010   -0.6143    2.5836 N   0  0
   -3.8171   -1.7433    2.0205 C   0  0
   -4.7691   -2.2185    2.7700 N   0  0
   -2.2140    0.2053    2.0423 C   0  0  1  0  0  0
   -0.8643   -0.2096    2.6689 C   0  0  1  0  0  0
    0.1447   -0.0815    1.5059 C   0  0  1  0  0  0
   -0.7147    0.3956    0.3142 C   0  0  2  0  0  0
   -2.0564   -0.0383    0.6266 O   0  0
   -0.2332   -0.2553   -0.9841 C   0  0
   -0.9875    0.2594   -2.0833 O   0  0
   -0.7476   -0.2060   -3.6058 P   0  0
   -0.8602   -1.6790   -3.6949 O   0  0
   -1.8545    0.4753   -4.5559 O   0  0
   -2.4267    0.1421   -6.0234 P   0  0
   -1.3215    0.1905   -7.0066 O   0  0
   -3.6955    1.3709   -6.4745 C   0  0  1  0  0  0
   -4.3434    0.9936   -8.1361 P   0  0
   -3.2382    1.0420   -9.1193 O   0  0
   -5.1636    1.3066   -5.1685 Br  0  0
   -2.8969    3.1674   -6.4748 Br  0  0
    1.1487    0.8861    1.8183 O   0  0
   -0.5143    0.6751    3.7352 O   0  0
    0.7215    0.2498   -4.0811 O   0  5
   -4.9973   -0.4777   -8.1358 O   0  0
   -5.4639    2.0788   -8.5345 O   0  5
   -3.0807   -1.3291   -6.0231 O   0  5
   -5.7416   -2.0371    7.6035 H   0  0
   -6.3804   -3.7104    7.4723 H   0  0
   -7.2320   -2.5014    8.4909 H   0  0
   -7.7763   -1.1704    6.4566 H   0  0
   -8.4146   -2.8444    6.3261 H   0  0
   -8.3406   -1.6771    3.9942 H   0  0
   -7.0190   -2.4309    3.0392 H   0  0
   -8.9662   -3.9132    4.8930 H   0  0
   -7.6444   -4.6668    3.9391 H   0  0
   -9.0310   -3.8952    3.0987 H   0  0
   -4.6957    1.2787    6.4949 H   0  0
   -3.4789   -2.1872    1.0726 H   0  0
   -2.4673    1.2539    2.2575 H   0  0
   -0.8896   -1.2218    3.0988 H   0  0
    0.6733   -1.0234    1.2974 H   0  0
   -0.6537    1.4841    0.1677 H   0  0
    0.8329   -0.0297   -1.1341 H   0  0
   -0.3724   -1.3447   -0.9230 H   0  0
    1.6247    0.6044    2.6394 H   0  0
   -1.2227    0.6447    4.4261 H   0  0
   -5.7370   -0.5111   -7.4786 H   0  0
  1  2  1  0
  2  3  1  0
  3  4  1  0
  3  6  1  0
  4  5  1  0
  6 11  1  0
  6  7  2  0
  7 14  1  0
  7  8  1  0
  8  9  2  0
  8 12  1  0
  9 10  1  0
 10 11  2  0
 12 13  1  0
 12 15  1  0
 13 14  2  0
 15 19  1  0
 15 16  1  0
 16 17  1  0
 16 33  1  0
 17 18  1  0
 17 32  1  0
 18 19  1  0
 18 20  1  0
 20 21  1  0
 21 22  1  0
 22 23  2  0
 22 24  1  0
 22 34  1  0
 24 25  1  0
 25 26  2  0
 25 27  1  0
 25 37  1  0
 27 28  1  0
 27 30  1  0
 27 31  1  0
 28 29  2  0
 28 35  1  0
 28 36  1  0
  1 38  1  0
  1 39  1  0
  1 40  1  0
  2 41  1  0
  2 42  1  0
  4 43  1  0
  4 44  1  0
  5 45  1  0
  5 46  1  0
  5 47  1  0
 10 48  1  0
 13 49  1  0
 15 50  1  0
 16 51  1  0
 17 52  1  0
 18 53  1  0
 20 54  1  0
 20 55  1  0
 32 56  1  0
 33 57  1  0
 35 58  1  0
M  CHG  3  34  -1  36  -1  37  -1
M  END
> <Name>
ZINC04475072

> <reference>
BDB50085452

> <quality>
0.664

> <status>
decoy

$$$$
ZINC24704875
  SciTegic06061311253D

 82 86  0  0  1  0            999 V2000
   -0.0208    5.1925    4.5435 C   0  0
    0.0411    3.7554    5.0649 C   0  0  1  0  0  0
   -0.4499    2.8288    3.9905 C   0  0  2  0  0  0
   -1.8940    2.3303    4.1151 C   0  0  2  0  0  0
   -1.8882    1.1169    3.2449 N   0  0
   -0.4736    0.6709    3.1378 C   0  0
    0.3014    1.5507    4.0033 N   0  0
    1.6955    1.8146    3.7133 C   0  0  2  0  0  0
    2.4969    0.5584    3.5623 C   0  0
    2.0881   -0.3273    2.8424 O   0  0
    3.6624    0.3975    4.2126 N   0  0
    4.1510    1.3733    5.0398 C   0  0
    3.4410    2.4295    5.3593 N   0  0
    2.2020    2.6218    4.8922 C   0  0
    1.4074    3.4637    5.4778 N   0  0
    5.4124    1.2438    5.5460 N   0  0
   -2.6910    0.1097    3.7852 C   0  0
   -2.4613   -1.2186    3.4499 C   0  0
   -3.2539   -2.2125    3.9896 C   0  0
   -4.2820   -1.8856    4.8548 C   0  0
   -4.5168   -0.5639    5.1866 C   0  0
   -3.7246    0.4345    4.6546 C   0  0
   -5.1488   -2.9723    5.4369 C   0  0
   -6.3447   -3.2194    4.5151 C   0  0  1  0  0  0
   -7.1566   -4.4053    5.0399 C   0  0  1  0  0  0
   -8.3525   -4.6524    4.1181 C   0  0  2  0  0  0
   -9.0932   -5.9124    4.5704 C   0  0
  -10.2745   -6.0788    3.7837 O   0  0
  -11.0438   -7.2331    4.1271 C   0  0  2  0  0  0
  -12.1496   -7.4580    3.0735 C   0  0  1  0  0  0
  -13.3527   -7.9046    3.9508 C   0  0  1  0  0  0
  -13.1107   -7.0677    5.2321 C   0  0  2  0  0  0
  -11.6837   -7.0316    5.3927 O   0  0
  -13.7642   -7.7415    6.4404 C   0  0
  -13.5736   -6.9286    7.6000 O   0  0
  -14.1319   -7.3321    9.0552 P   0  0
  -15.5885   -7.5809    8.9731 O   0  0
  -13.3876   -8.6656    9.5648 O   0  5
  -13.8501   -6.1314   10.0900 O   0  5
  -14.5959   -7.5588    3.3369 O   0  0
  -12.4479   -6.2434    2.3822 O   0  0
   -7.8919   -4.8264    2.7766 O   0  0
   -6.3309   -5.5711    5.0719 O   0  0
   -7.1704   -2.0536    4.4831 O   0  0
   -2.8781    3.3752    3.5854 C   0  0
    0.6535    5.3058    3.6818 H   0  0
    0.2775    5.8909    5.3392 H   0  0
   -1.0502    5.4201    4.2296 H   0  0
   -0.6068    3.6170    5.9430 H   0  0
   -0.3298    3.4604    3.0980 H   0  0
   -2.2045    2.1298    5.1511 H   0  0
   -0.3822   -0.3693    3.4837 H   0  0
   -0.1271    0.7691    2.0984 H   0  0
    1.7974    2.3475    2.7564 H   0  0
    4.1967   -0.4740    4.0866 H   0  0
    5.9913    0.4249    5.3111 H   0  0
    5.7870    1.9736    6.1689 H   0  0
   -1.6490   -1.4786    2.7553 H   0  0
   -3.0672   -3.2652    3.7310 H   0  0
   -5.3355   -0.3074    5.8751 H   0  0
   -3.9119    1.4857    4.9190 H   0  0
   -5.5093   -2.6633    6.4291 H   0  0
   -4.5623   -3.8980    5.5318 H   0  0
   -5.9851   -3.4419    3.4996 H   0  0
   -7.5162   -4.1828    6.0554 H   0  0
   -9.0342   -3.7903    4.1628 H   0  0
   -8.4404   -6.7882    4.4405 H   0  0
   -9.3702   -5.8156    5.6305 H   0  0
  -10.3688   -8.1006    4.1695 H   0  0
  -11.8769   -8.1830    2.2925 H   0  0
  -13.4137   -8.9898    4.1203 H   0  0
  -13.5435   -6.0595    5.1534 H   0  0
  -14.8410   -7.8656    6.2532 H   0  0
  -13.3046   -8.7272    6.6050 H   0  0
  -14.6481   -8.0013    2.4529 H   0  0
  -11.6263   -5.9186    1.9355 H   0  0
   -7.2784   -5.6023    2.7353 H   0  0
   -5.5569   -5.4121    5.6684 H   0  0
   -6.6459   -1.2858    4.1434 H   0  0
   -2.6491    3.5773    2.5287 H   0  0
   -2.7585    4.3031    4.1639 H   0  0
   -3.9098    3.0057    3.6803 H   0  0
  1  2  1  0
  2 15  1  0
  2  3  1  0
  3  7  1  0
  3  4  1  0
  4  5  1  0
  4 45  1  0
  5  6  1  0
  5 17  1  0
  6  7  1  0
  7  8  1  0
  8 14  1  0
  8  9  1  0
  9 10  2  0
  9 11  1  0
 11 12  1  0
 12 13  2  0
 12 16  1  0
 13 14  1  0
 14 15  2  0
 17 22  2  0
 17 18  1  0
 18 19  2  0
 19 20  1  0
 20 21  2  0
 20 23  1  0
 21 22  1  0
 23 24  1  0
 24 25  1  0
 24 44  1  0
 25 26  1  0
 25 43  1  0
 26 27  1  0
 26 42  1  0
 27 28  1  0
 28 29  1  0
 29 33  1  0
 29 30  1  0
 30 31  1  0
 30 41  1  0
 31 32  1  0
 31 40  1  0
 32 33  1  0
 32 34  1  0
 34 35  1  0
 35 36  1  0
 36 37  2  0
 36 38  1  0
 36 39  1  0
  1 46  1  0
  1 47  1  0
  1 48  1  0
  2 49  1  0
  3 50  1  0
  4 51  1  0
  6 52  1  0
  6 53  1  0
  8 54  1  0
 11 55  1  0
 16 56  1  0
 16 57  1  0
 18 58  1  0
 19 59  1  0
 21 60  1  0
 22 61  1  0
 23 62  1  0
 23 63  1  0
 24 64  1  0
 25 65  1  0
 26 66  1  0
 27 67  1  0
 27 68  1  0
 29 69  1  0
 30 70  1  0
 31 71  1  0
 32 72  1  0
 34 73  1  0
 34 74  1  0
 40 75  1  0
 41 76  1  0
 42 77  1  0
 43 78  1  0
 44 79  1  0
 45 80  1  0
 45 81  1  0
 45 82  1  0
M  CHG  2  38  -1  39  -1
M  END
> <Name>
ZINC24704875

> <reference>
BDB50085452

> <quality>
0.659

> <status>
decoy

$$$$
ZINC14943088
  SciTegic06061311253D

 78 79  0  0  1  0            999 V2000
    7.6665    3.5905   -4.5881 C   0  0
    7.1049    4.4257   -3.4358 C   0  0
    6.5890    3.5351   -2.3932 N   0  0
    6.0426    4.0522   -1.2750 C   0  0
    5.9780    5.2548   -1.1317 O   0  0
    5.5120    3.1360   -0.2025 C   0  0  2  0  0  0
    4.1235    2.6331   -0.6026 C   0  0  1  0  0  0
    2.4620    0.9199   -0.0165 C   0  0  2  0  0  0
    2.7207    0.4042   -1.4498 C   0  0  1  0  0  0
    4.2259    1.3490   -1.9275 S   0  0
    2.9988   -1.1003   -1.4486 C   0  0
    1.5483    0.7415   -2.3731 C   0  0
    1.1468    1.6555    0.0000 C   0  0
    1.1304    2.8682    0.0067 O   0  0
   -0.0111    0.9658    0.0074 N   0  0
   -1.2896    1.6810    0.0173 C   0  0
   -2.4389    0.6711    0.0173 C   0  0
   -3.7175    1.3862    0.0272 N   0  0
   -4.8754    0.6966    0.0290 C   0  0
   -4.8589   -0.5161    0.0223 O   0  0
   -6.1906    1.4323    0.0392 C   0  0  1  0  0  0
   -6.4697    1.9634   -1.3846 C   0  0  1  0  0  0
   -7.9817    1.0237   -1.8509 S   0  0
   -7.8604   -0.2747   -0.5415 C   0  0  2  0  0  0
   -9.2431   -0.7820   -0.1272 C   0  0  1  0  0  0
   -9.7891   -1.6866   -1.2017 C   0  0
   -9.7225   -2.8906   -1.0725 O   0  0
  -10.3514   -1.1575   -2.3064 N   0  0
  -10.8822   -2.0368   -3.3511 C   0  0
  -11.4601   -1.1892   -4.4862 C   0  0
   -6.7477    3.4677   -1.3632 C   0  0
   -5.3107    1.6361   -2.3282 C   0  0
    3.5113    1.8182    0.5041 N   0  0
   -7.2325    0.5283    0.5650 N   0  0
   -9.1573   -1.5366    1.1357 N   0  0
    5.4103    3.8516    1.0816 N   0  0
    6.8691    2.9594   -5.0075 H   0  0
    8.4813    2.9518   -4.2163 H   0  0
    8.0540    4.2587   -5.3713 H   0  0
    7.9030    5.0562   -3.0168 H   0  0
    6.2901    5.0644   -3.8075 H   0  0
    6.6439    2.5138   -2.5148 H   0  0
    6.2040    2.2884   -0.0898 H   0  0
    3.5679    3.5403   -0.8825 H   0  0
    2.4555    0.0354    0.6374 H   0  0
    2.1297   -1.6220   -1.0214 H   0  0
    3.8809   -1.2982   -0.8219 H   0  0
    3.1810   -1.4535   -2.4743 H   0  0
    1.4148    1.8332   -2.3937 H   0  0
    0.6357    0.2750   -1.9737 H   0  0
    1.7458    0.3689   -3.3890 H   0  0
    0.0029   -0.0641    0.0061 H   0  0
   -1.3526    2.3073    0.9194 H   0  0
   -1.3619    2.3176   -0.8769 H   0  0
   -2.3767    0.0447   -0.8848 H   0  0
   -2.3689    0.0343    0.9115 H   0  0
   -3.7315    2.4161    0.0328 H   0  0
   -6.1747    2.3097    0.7025 H   0  0
   -7.3088   -1.1787   -0.8390 H   0  0
   -9.9076    0.0832    0.0134 H   0  0
  -10.4079   -0.1349   -2.4162 H   0  0
  -11.6746   -2.6725   -2.9292 H   0  0
  -10.0732   -2.6708   -3.7429 H   0  0
  -10.6687   -0.5536   -4.9101 H   0  0
  -12.2694   -0.5546   -4.0959 H   0  0
  -11.8588   -1.8489   -5.2710 H   0  0
   -5.8726    3.9849   -0.9429 H   0  0
   -7.6208    3.6587   -0.7219 H   0  0
   -6.9445    3.8319   -2.3823 H   0  0
   -5.1777    0.5447   -2.3624 H   0  0
   -4.3924    2.0983   -1.9369 H   0  0
   -5.5227    2.0196   -3.3371 H   0  0
    3.0987    2.4506    1.2046 H   0  0
   -6.8106   -0.1128    1.2519 H   0  0
   -8.7825   -0.9207    1.8713 H   0  0
   -8.5218   -2.3370    1.0074 H   0  0
    4.7749    4.6546    0.9704 H   0  0
    6.3438    4.1928    1.3521 H   0  0
  1  2  1  0
  2  3  1  0
  3  4  1  0
  4  5  2  0
  4  6  1  0
  6  7  1  0
  6 36  1  0
  7 10  1  0
  7 33  1  0
  8  9  1  0
  8 13  1  0
  8 33  1  0
  9 10  1  0
  9 11  1  0
  9 12  1  0
 13 14  2  0
 13 15  1  0
 15 16  1  0
 16 17  1  0
 17 18  1  0
 18 19  1  0
 19 20  2  0
 19 21  1  0
 21 22  1  0
 21 34  1  0
 22 23  1  0
 22 31  1  0
 22 32  1  0
 23 24  1  0
 24 25  1  0
 24 34  1  0
 25 26  1  0
 25 35  1  0
 26 27  2  0
 26 28  1  0
 28 29  1  0
 29 30  1  0
  1 37  1  0
  1 38  1  0
  1 39  1  0
  2 40  1  0
  2 41  1  0
  3 42  1  0
  6 43  1  0
  7 44  1  0
  8 45  1  0
 11 46  1  0
 11 47  1  0
 11 48  1  0
 12 49  1  0
 12 50  1  0
 12 51  1  0
 15 52  1  0
 16 53  1  0
 16 54  1  0
 17 55  1  0
 17 56  1  0
 18 57  1  0
 21 58  1  0
 24 59  1  0
 25 60  1  0
 28 61  1  0
 29 62  1  0
 29 63  1  0
 30 64  1  0
 30 65  1  0
 30 66  1  0
 31 67  1  0
 31 68  1  0
 31 69  1  0
 32 70  1  0
 32 71  1  0
 32 72  1  0
 33 73  1  0
 34 74  1  0
 35 75  1  0
 35 76  1  0
 36 77  1  0
 36 78  1  0
M  END
> <Name>
ZINC14943088

> <reference>
BDB50085452

> <quality>
0.652

> <status>
decoy

$$$$
ZINC17157017
  SciTegic06061311253D

 64 65  0  0  1  0            999 V2000
    0.7511    9.2586   -1.4732 C   0  0
    0.7913    7.7548   -1.3824 C   0  0
    0.3685    7.0808   -2.2973 O   0  0
    1.2973    7.1593   -0.2843 N   0  0
    1.3342    5.7799   -0.2011 C   0  0
    1.8621    5.1537    0.9446 C   0  0
    1.8869    3.7998    1.0005 C   0  0
    1.4020    3.0811   -0.0497 N   0  0
    0.9087    3.7094   -1.1327 C   0  0
    0.4830    3.0503   -2.0668 O   0  0
    0.8733    5.0397   -1.1992 N   0  0
    1.4231    1.6170   -0.0028 C   0  0  2  0  0  0
   -0.0011    1.0803   -0.1685 C   0  0  1  0  0  0
   -0.8622    1.5705    0.9998 C   0  0  1  0  0  0
   -0.2209    1.1208    2.3162 C   0  0  2  0  0  0
    1.2118    1.6559    2.3858 C   0  0  2  0  0  0
    1.9491    1.1880    1.2547 O   0  0
    1.8794    1.1609    3.6704 C   0  0
    3.1954    1.7619    3.7945 O   0  0
    3.9180    1.4287    4.8755 C   0  0
    3.4659    0.6604    5.6910 O   0  0
    5.2932    2.0130    5.0719 C   0  0
   -0.2005   -0.3298    2.3768 O   0  0
   -0.2682   -0.8898    3.5948 C   0  0
   -0.3420   -0.1910    4.5778 O   0  0
   -0.2521   -2.3901    3.7363 C   0  0
   -0.9429    3.0199    0.9690 O   0  0
   -2.0616    3.5784    1.4573 C   0  0
   -2.9440    2.8793    1.8960 O   0  0
   -2.2168    5.0774    1.4585 C   0  0
   -0.5638    1.5665   -1.4307 N   0  0
   -0.3212    0.9009   -2.5773 C   0  0
    0.3643   -0.1026   -2.5641 O   0  0
   -0.8389    1.3482   -3.7385 N   0  0
   -0.5964    0.6826   -4.8851 C   0  0
    0.0875   -0.3184   -4.8719 O   0  0
   -1.1752    1.1827   -6.1835 C   0  0
   -0.3051    9.5142   -1.6436 H   0  0
    1.3075    9.5124   -2.3875 H   0  0
    1.1622    9.7578   -0.5833 H   0  0
    1.6565    7.7319    0.4929 H   0  0
    2.2484    5.7543    1.7813 H   0  0
    2.2942    3.2871    1.8844 H   0  0
    2.0570    1.2338   -0.8160 H   0  0
    0.0164   -0.0195   -0.1787 H   0  0
   -1.8750    1.1494    0.9171 H   0  0
   -0.8037    1.5113    3.1634 H   0  0
    1.1937    2.7557    2.3830 H   0  0
    1.2639    1.4451    4.5367 H   0  0
    1.9790    0.0660    3.6348 H   0  0
    5.1476    3.1032    5.0545 H   0  0
    5.8526    1.7432    4.1640 H   0  0
    5.7924    1.6705    5.9903 H   0  0
    0.6727   -2.7160    3.2378 H   0  0
   -1.0954   -2.7455    3.1260 H   0  0
   -0.3122   -2.7369    4.7785 H   0  0
   -2.0879    5.3807    0.4090 H   0  0
   -1.3483    5.4559    2.0174 H   0  0
   -3.1716    5.4230    1.8814 H   0  0
   -1.1448    2.4169   -1.4419 H   0  0
   -1.4198    2.1987   -3.7497 H   0  0
   -0.8130    2.2168   -6.2801 H   0  0
   -2.2610    1.2312   -6.0142 H   0  0
   -0.9128    0.5625   -7.0533 H   0  0
  1  2  1  0
  2  3  2  0
  2  4  1  0
  4  5  1  0
  5 11  2  0
  5  6  1  0
  6  7  2  0
  7  8  1  0
  8  9  1  0
  8 12  1  0
  9 10  2  0
  9 11  1  0
 12 17  1  0
 12 13  1  0
 13 14  1  0
 13 31  1  0
 14 15  1  0
 14 27  1  0
 15 16  1  0
 15 23  1  0
 16 17  1  0
 16 18  1  0
 18 19  1  0
 19 20  1  0
 20 21  2  0
 20 22  1  0
 23 24  1  0
 24 25  2  0
 24 26  1  0
 27 28  1  0
 28 29  2  0
 28 30  1  0
 31 32  1  0
 32 33  2  0
 32 34  1  0
 34 35  1  0
 35 36  2  0
 35 37  1  0
  1 38  1  0
  1 39  1  0
  1 40  1  0
  4 41  1  0
  6 42  1  0
  7 43  1  0
 12 44  1  0
 13 45  1  0
 14 46  1  0
 15 47  1  0
 16 48  1  0
 18 49  1  0
 18 50  1  0
 22 51  1  0
 22 52  1  0
 22 53  1  0
 26 54  1  0
 26 55  1  0
 26 56  1  0
 30 57  1  0
 30 58  1  0
 30 59  1  0
 31 60  1  0
 34 61  1  0
 37 62  1  0
 37 63  1  0
 37 64  1  0
M  END
> <Name>
ZINC17157017

> <reference>
BDB50085452

> <quality>
0.652

> <status>
decoy

$$$$
ZINC30160233
  SciTegic06061311253D

 84 87  0  0  1  0            999 V2000
    6.4659    1.7471   -1.6235 C   0  0
    5.6790    0.4663   -1.9080 C   0  0  2  0  0  0
    6.2936   -0.2535   -3.1101 C   0  0
    7.7084   -0.7174   -2.7581 C   0  0
    8.3230   -1.4371   -3.9603 C   0  0  2  0  0  0
    9.6870   -2.0094   -3.5693 C   0  0  2  0  0  0
   10.6104   -0.8716   -3.1294 C   0  0
   10.0956   -0.2740   -1.9378 O   0  0
   10.3016   -2.7292   -4.7715 C   0  0
   11.5199   -3.3625   -4.3757 O   0  0
   12.2210   -4.1128   -5.4991 S   0  0
   13.2813   -4.8442   -4.8991 O   0  0
   11.2024   -4.7391   -6.2668 O   0  0
   12.8671   -3.0710   -6.4012 O   0  5
    8.4855   -0.5121   -5.0373 O   0  0
    4.2225    0.8201   -2.2154 C   0  0  1  0  0  0
    3.4181   -0.4607   -2.5504 C   0  0
    2.2434   -0.5180   -1.5360 C   0  0
    2.0727    0.9488   -1.1255 C   0  0  2  0  0  0
    3.5491    1.4071   -0.9794 C   0  0  2  0  0  0
    3.5458    2.9185   -0.8624 C   0  0  2  0  0  0
    2.8147    3.2743    0.4432 C   0  0
    1.4010    2.7034    0.4615 C   0  0  1  0  0  0
    1.3999    1.1869    0.2133 C   0  0  1  0  0  0
   -0.0448    0.6861    0.1794 C   0  0  1  0  0  0
   -0.7175    0.9801    1.5219 C   0  0
   -0.7076    2.4881    1.7802 C   0  0  1  0  0  0
    0.7375    2.9915    1.8089 C   0  0  2  0  0  0
    0.7485    4.4991    2.0706 C   0  0
   -0.0186    5.2130    0.9524 C   0  0
   -1.4630    4.7096    0.9204 C   0  0  2  0  0  0
   -1.4720    3.2015    0.6631 C   0  0
   -2.1763    5.3752   -0.1237 O   0  0
    1.5062    2.2744    2.9206 C   0  0
   -0.7557    1.3523   -0.8659 O   0  0
    2.8578    3.4910   -1.9764 O   0  0
    4.1589    0.7923    0.2820 C   0  0
    6.4269    2.4058   -2.5036 H   0  0
    7.5132    1.4937   -1.4021 H   0  0
    6.0245    2.2651   -0.7593 H   0  0
    5.7185   -0.1915   -1.0272 H   0  0
    5.6763   -1.1260   -3.3701 H   0  0
    6.3367    0.4339   -3.9678 H   0  0
    8.3264    0.1547   -2.4983 H   0  0
    7.6672   -1.4060   -1.9013 H   0  0
    7.6591   -2.2551   -4.2767 H   0  0
    9.5619   -2.7214   -2.7402 H   0  0
   11.6166   -1.2707   -2.9337 H   0  0
   10.6648   -0.1137   -3.9248 H   0  0
   10.0470   -0.9547   -1.2206 H   0  0
    9.5981   -3.4887   -5.1432 H   0  0
   10.5101   -2.0009   -5.5691 H   0  0
    9.0831    0.2244   -4.7536 H   0  0
    4.2319    1.5308   -3.0549 H   0  0
    4.0580   -1.3474   -2.4307 H   0  0
    3.0235   -0.3972   -3.5752 H   0  0
    1.3313   -0.8838   -2.0301 H   0  0
    2.5219   -1.1275   -0.6637 H   0  0
    1.4353    1.4690   -1.8556 H   0  0
    4.5732    3.3114   -0.8539 H   0  0
    2.7635    4.3685    0.5440 H   0  0
    3.3789    2.8691    1.2961 H   0  0
    0.8370    3.1889   -0.3486 H   0  0
    1.9358    0.6488    1.0091 H   0  0
   -0.0530   -0.3982   -0.0054 H   0  0
   -0.1707    0.4676    2.3271 H   0  0
   -1.7565    0.6198    1.4980 H   0  0
   -1.1888    2.6973    2.7470 H   0  0
    1.7868    4.8616    2.0917 H   0  0
    0.2661    4.7076    3.0370 H   0  0
   -0.0130    6.2972    1.1383 H   0  0
    0.4628    5.0048   -0.0145 H   0  0
   -1.9459    4.9196    1.8861 H   0  0
   -2.5108    2.8406    0.6398 H   0  0
   -0.9896    2.9921   -0.3030 H   0  0
   -1.7425    5.1865   -0.9933 H   0  0
    2.5454    2.6345    2.9400 H   0  0
    1.4979    1.1906    2.7329 H   0  0
    1.0292    2.4814    3.8899 H   0  0
   -0.3209    1.1626   -1.7348 H   0  0
    1.9251    3.1594   -1.9913 H   0  0
    5.2361    1.0129    0.3123 H   0  0
    4.0098   -0.2974    0.2665 H   0  0
    3.6720    1.2168    1.1724 H   0  0
  1  2  1  0
  2  3  1  0
  2 16  1  0
  3  4  1  0
  4  5  1  0
  5  6  1  0
  5 15  1  0
  6  7  1  0
  6  9  1  0
  7  8  1  0
  9 10  1  0
 10 11  1  0
 11 12  2  0
 11 13  2  0
 11 14  1  0
 16 20  1  0
 16 17  1  0
 17 18  1  0
 18 19  1  0
 19 24  1  0
 19 20  1  0
 20 21  1  0
 20 37  1  0
 21 22  1  0
 21 36  1  0
 22 23  1  0
 23 28  1  0
 23 24  1  0
 24 25  1  0
 25 26  1  0
 25 35  1  0
 26 27  1  0
 27 32  1  0
 27 28  1  0
 28 29  1  0
 28 34  1  0
 29 30  1  0
 30 31  1  0
 31 32  1  0
 31 33  1  0
  1 38  1  0
  1 39  1  0
  1 40  1  0
  2 41  1  0
  3 42  1  0
  3 43  1  0
  4 44  1  0
  4 45  1  0
  5 46  1  0
  6 47  1  0
  7 48  1  0
  7 49  1  0
  8 50  1  0
  9 51  1  0
  9 52  1  0
 15 53  1  0
 16 54  1  0
 17 55  1  0
 17 56  1  0
 18 57  1  0
 18 58  1  0
 19 59  1  0
 21 60  1  0
 22 61  1  0
 22 62  1  0
 23 63  1  0
 24 64  1  0
 25 65  1  0
 26 66  1  0
 26 67  1  0
 27 68  1  0
 29 69  1  0
 29 70  1  0
 30 71  1  0
 30 72  1  0
 31 73  1  0
 32 74  1  0
 32 75  1  0
 33 76  1  0
 34 77  1  0
 34 78  1  0
 34 79  1  0
 35 80  1  0
 36 81  1  0
 37 82  1  0
 37 83  1  0
 37 84  1  0
M  CHG  1  14  -1
M  END
> <Name>
ZINC30160233

> <reference>
BDB50085452

> <quality>
0.645

> <status>
decoy

$$$$
ZINC21455359
  SciTegic06061311253D

 57 59  0  0  0  0            999 V2000
    1.8763    5.2032  -13.6762 C   0  0
    0.5126    4.7511  -13.2213 C   0  0
   -0.6338    5.5491  -13.1478 C   0  0
   -1.6510    4.7766  -12.7011 C   0  0
   -1.1633    3.5361  -12.4900 N   0  0
    0.1963    3.5442  -12.8272 N   0  0
   -1.9231    2.3831  -12.0007 C   0  0
   -1.8547    2.3383  -10.4960 C   0  0
   -0.9249    1.7072   -9.7639 N   0  0
   -1.2533    1.9279   -8.5068 C   0  0
   -2.3588    2.6878   -8.5244 O   0  0
   -2.6837    2.9094   -9.6719 N   0  0
   -0.5363    1.4368   -7.3058 C   0  0
    0.4598    0.7524   -7.4305 O   0  0
   -0.9894    1.7495   -6.0756 N   0  0
   -0.2809    1.2642   -4.8887 C   0  0
   -0.9970    1.7576   -3.6299 C   0  0
   -0.2884    1.2723   -2.4431 N   0  0
   -0.7416    1.5850   -1.2129 C   0  0
   -1.7359    2.2682   -1.0884 O   0  0
   -0.0127    1.0858    0.0080 C   0  0
   -0.6984    1.5583    1.2133 N   0  0
   -1.6879    0.9148    1.8676 C   0  0
   -2.0485    1.6790    2.9245 C   0  0
   -1.2521    2.8288    2.9159 C   0  0
   -0.4386    2.7549    1.8938 N   0  0
   -1.3153    3.9550    3.9152 C   0  0
   -3.0996    1.3551    3.9151 N   0  0
   -2.8161    0.7309    4.9218 O   0  0
   -4.2480    1.7127    3.7234 O   0  0
   -2.2847   -0.4161    1.4887 C   0  0
   -3.0727    5.2225  -12.4758 C   0  0
   -0.7205    6.9837  -13.5022 N   0  0
   -1.0002    7.3139  -14.6408 O   0  0
   -0.5120    7.8339  -12.6554 O   0  0
    2.1123    4.4937  -14.4830 H   0  0
    2.5206    4.9270  -12.8285 H   0  0
    1.9599    6.2590  -13.9733 H   0  0
   -1.4948    1.4581  -12.4142 H   0  0
   -2.9727    2.4745  -12.3169 H   0  0
   -1.8338    2.3297   -5.9699 H   0  0
   -0.2664    0.1643   -4.8943 H   0  0
    0.7512    1.6445   -4.8953 H   0  0
   -1.0115    2.8575   -3.6234 H   0  0
   -2.0291    1.3772   -3.6209 H   0  0
    0.5561    0.6922   -2.5488 H   0  0
    0.0018   -0.0141    0.0024 H   0  0
    1.0194    1.4662    0.0013 H   0  0
   -1.1847    3.4307    4.8734 H   0  0
   -2.3750    4.2477    3.8773 H   0  0
   -0.6142    4.7885    3.7611 H   0  0
   -1.4016   -1.0703    1.4426 H   0  0
   -2.5929   -0.2523    0.4455 H   0  0
   -3.0879   -0.7936    2.1387 H   0  0
   -3.3478    5.6476  -13.4523 H   0  0
   -2.9500    6.0802  -11.7981 H   0  0
   -3.7720    4.4574  -12.1075 H   0  0
  1  2  1  0
  2  6  2  0
  2  3  1  0
  3  4  2  0
  3 33  1  0
  4  5  1  0
  4 32  1  0
  5  6  1  0
  5  7  1  0
  7  8  1  0
  8 12  2  0
  8  9  1  0
  9 10  2  0
 10 11  1  0
 10 13  1  0
 11 12  1  0
 13 14  2  0
 13 15  1  0
 15 16  1  0
 16 17  1  0
 17 18  1  0
 18 19  1  0
 19 20  2  0
 19 21  1  0
 21 22  1  0
 22 26  1  0
 22 23  1  0
 23 24  2  0
 23 31  1  0
 24 25  1  0
 24 28  1  0
 25 26  2  0
 25 27  1  0
 28 29  2  0
 28 30  2  0
 33 34  2  0
 33 35  2  0
  1 36  1  0
  1 37  1  0
  1 38  1  0
  7 39  1  0
  7 40  1  0
 15 41  1  0
 16 42  1  0
 16 43  1  0
 17 44  1  0
 17 45  1  0
 18 46  1  0
 21 47  1  0
 21 48  1  0
 27 49  1  0
 27 50  1  0
 27 51  1  0
 31 52  1  0
 31 53  1  0
 31 54  1  0
 32 55  1  0
 32 56  1  0
 32 57  1  0
M  END
> <Name>
ZINC21455359

> <reference>
BDB50085452

> <quality>
0.641

> <status>
decoy

$$$$
ZINC24715631
  SciTegic06061311253D

 89 92  0  0  1  0            999 V2000
   -1.1988    2.3726    4.5611 C   0  0
   -1.3885    1.5188    5.8165 C   0  0
   -0.0203    1.1334    6.3826 C   0  0  1  0  0  0
   -0.2074    0.3863    7.7046 C   0  0
    0.6774    0.2688    5.4276 N   0  0
    2.0237    0.2063    5.4339 C   0  0
    2.6590    0.8673    6.2319 O   0  0
    2.7280   -0.6664    4.4699 C   0  0
    4.1198   -0.7315    4.4758 C   0  0
    4.7798   -1.5558    3.5657 C   0  0
    4.0443   -2.3132    2.6516 C   0  0
    2.6591   -2.2455    2.6485 C   0  0
    1.9990   -1.4300    3.5572 C   0  0
    1.9261   -3.0039    1.7319 N   0  0
    6.2554   -1.6284    3.5686 C   0  0
    6.9542   -1.3511    2.4187 C   0  0
    8.2817   -1.4064    2.3843 N   0  0
    8.9736   -1.7305    3.4570 C   0  0
    8.2685   -2.0344    4.7059 C   0  0
    8.8877   -2.3365    5.7119 O   0  0
    6.9188   -1.9670    4.7214 N   0  0
    6.1743   -2.2569    5.9494 C   0  0
    5.9402   -3.7418    6.0562 C   0  0
    6.3545   -4.4847    5.1916 O   0  0
    5.2706   -4.2442    7.1124 N   0  0
    5.0430   -5.6877    7.2162 C   0  0
    4.2772   -5.9860    8.4793 C   0  0
    4.9448   -6.4427    9.5984 C   0  0
    4.2503   -6.7178   10.7598 C   0  0
    2.8672   -6.5357   10.8097 C   0  0
    2.1875   -6.0756    9.6858 C   0  0
    2.8943   -5.7945    8.5178 C   0  0
    2.1813   -5.2996    7.3211 C   0  0
    2.7986   -5.0589    6.3021 O   0  0
    0.8468   -5.1154    7.3600 N   0  0
    0.1587   -4.7539    6.2021 C   0  0
   -1.0424   -4.0499    6.2743 C   0  0
   -1.6895   -3.7067    5.1054 C   0  0
   -1.1907   -4.0455    3.9314 N   0  0
   -0.0594   -4.7161    3.8217 C   0  0
    0.6513   -5.0923    4.9425 C   0  0
    2.1245   -6.8319   12.0563 C   0  0
    0.8341   -6.6615   12.1016 N   0  3
    2.7986   -7.2877   13.1681 N   0  0
   10.3599   -1.7845    3.4053 N   0  0
   11.0586   -1.4803    2.1542 C   0  0  1  0  0  0
   11.2595    0.0319    2.0369 C   0  0
   12.4205   -2.1776    2.1480 C   0  0
   -0.6393    1.7991    3.8074 H   0  0
   -0.6389    3.2841    4.8174 H   0  0
   -2.1821    2.6501    4.1535 H   0  0
   -1.9484    0.6073    5.5602 H   0  0
   -1.9478    2.0932    6.5697 H   0  0
    0.5740    2.0426    6.5562 H   0  0
   -0.8014   -0.5233    7.5320 H   0  0
   -0.7310    1.0347    8.4225 H   0  0
    0.7759    0.1089    8.1122 H   0  0
    0.1390   -0.2913    4.7513 H   0  0
    4.6965   -0.1338    5.1970 H   0  0
    4.5642   -2.9642    1.9333 H   0  0
    0.8999   -1.3855    3.5579 H   0  0
    2.4138   -3.6126    1.0592 H   0  0
    0.8973   -2.9540    1.7291 H   0  0
    6.4032   -1.0774    1.5069 H   0  0
    5.2065   -1.7347    5.9247 H   0  0
    6.7538   -1.9141    6.8193 H   0  0
    4.9189   -3.6133    7.8466 H   0  0
    6.0099   -6.2116    7.2422 H   0  0
    4.4632   -6.0311    6.3468 H   0  0
    6.0346   -6.5880    9.5646 H   0  0
    4.7882   -7.0813   11.6478 H   0  0
    1.0971   -5.9344    9.7191 H   0  0
    0.3351   -5.2416    8.2449 H   0  0
   -1.4682   -3.7720    7.2497 H   0  0
   -2.6332   -3.1435    5.1524 H   0  0
    0.3217   -4.9784    2.8237 H   0  0
    1.5934   -5.6514    4.8438 H   0  0
    0.3301   -6.3207   11.2705 H   0  0
    0.3176   -6.8675   12.9686 H   0  0
    3.8191   -7.4225   13.1323 H   0  0
    2.2820   -7.4937   14.0351 H   0  0
   10.8971   -2.0384    4.2466 H   0  0
   10.4597   -1.8378    1.3036 H   0  0
   11.8585    0.3903    2.8871 H   0  0
   10.2809    0.5342    2.0410 H   0  0
   11.7841    0.2610    1.0976 H   0  0
   12.2772   -3.2650    2.2321 H   0  0
   13.0202   -1.8206    2.9982 H   0  0
   12.9457   -1.9496    1.2088 H   0  0
  1  2  1  0
  2  3  1  0
  3  4  1  0
  3  5  1  0
  5  6  1  0
  6  7  2  0
  6  8  1  0
  8 13  2  0
  8  9  1  0
  9 10  2  0
 10 11  1  0
 10 15  1  0
 11 12  2  0
 12 13  1  0
 12 14  1  0
 15 21  1  0
 15 16  2  0
 16 17  1  0
 17 18  2  0
 18 19  1  0
 18 45  1  0
 19 20  2  0
 19 21  1  0
 21 22  1  0
 22 23  1  0
 23 24  2  0
 23 25  1  0
 25 26  1  0
 26 27  1  0
 27 32  2  0
 27 28  1  0
 28 29  2  0
 29 30  1  0
 30 31  2  0
 30 42  1  0
 31 32  1  0
 32 33  1  0
 33 34  2  0
 33 35  1  0
 35 36  1  0
 36 41  2  0
 36 37  1  0
 37 38  2  0
 38 39  1  0
 39 40  2  0
 40 41  1  0
 42 43  2  0
 42 44  1  0
 45 46  1  0
 46 47  1  0
 46 48  1  0
  1 49  1  0
  1 50  1  0
  1 51  1  0
  2 52  1  0
  2 53  1  0
  3 54  1  0
  4 55  1  0
  4 56  1  0
  4 57  1  0
  5 58  1  0
  9 59  1  0
 11 60  1  0
 13 61  1  0
 14 62  1  0
 14 63  1  0
 16 64  1  0
 22 65  1  0
 22 66  1  0
 25 67  1  0
 26 68  1  0
 26 69  1  0
 28 70  1  0
 29 71  1  0
 31 72  1  0
 35 73  1  0
 37 74  1  0
 38 75  1  0
 40 76  1  0
 41 77  1  0
 43 78  1  0
 43 79  1  0
 44 80  1  0
 44 81  1  0
 45 82  1  0
 46 83  1  0
 47 84  1  0
 47 85  1  0
 47 86  1  0
 48 87  1  0
 48 88  1  0
 48 89  1  0
M  CHG  1  43   1
M  END
> <Name>
ZINC24715631

> <reference>
BDB50085452

> <quality>
0.640

> <status>
decoy

$$$$
ZINC31416140
  SciTegic06061311253D

 71 70  0  0  1  0            999 V2000
   -0.4702    1.3421   -1.1257 C   0  0
    0.1905    0.9599   -2.4516 C   0  0
   -0.6879    1.4290   -3.6131 C   0  0
   -0.0553    1.0630   -4.8828 N   0  3
   -0.6483    0.2288   -5.6898 C   0  0
   -1.9223   -0.2075   -5.4128 N   0  0
    0.0002   -0.2149   -6.8179 N   0  0
    0.4082    0.8730    0.0358 C   0  0
   -0.2525    1.2552    1.3618 C   0  0  1  0  0  0
    0.5611    0.6782    2.5220 C   0  0
   -0.1541    0.9491    3.8206 C   0  0
   -1.2104    1.5449    3.8183 O   0  0
    0.3803    0.5292    4.9845 N   0  0
   -0.3149    0.7924    6.2468 C   0  0  2  0  0  0
    0.6899    1.1706    7.3043 C   0  0
    0.7344    2.3095    7.7189 O   0  0
    1.5392    0.2433    7.7893 N   0  0
    2.5161    0.6109    8.8173 C   0  0
    3.3504   -0.6162    9.1902 C   0  0
    4.3706   -0.2322   10.2638 C   0  0
    5.2049   -1.4593   10.6366 C   0  0
    6.1844   -1.0907   11.6675 N   0  3
    7.0053   -2.2469   12.0511 C   0  0
    8.0112   -1.8247   13.1239 C   0  0
    8.8662   -3.0289   13.5235 C   0  0
    9.8320   -2.6236   14.5535 N   0  3
   -1.0189   -0.3816    6.6568 O   0  0
   -0.3021    2.6788    1.4763 O   0  0
   -1.6794    3.4991    1.6252 P   0  0
   -2.4431    2.9755    2.7798 O   0  0
   -1.3529    5.0580    1.8602 O   0  5
   -2.5525    3.3300    0.2831 O   0  5
   -0.5893    2.4345   -1.0767 H   0  0
   -1.4574    0.8621   -1.0549 H   0  0
    1.1774    1.4406   -2.5216 H   0  0
    0.3103   -0.1324   -2.5014 H   0  0
   -0.8079    2.5214   -3.5656 H   0  0
   -1.6749    0.9484   -3.5439 H   0  0
    0.8581    1.4649   -5.1378 H   0  0
   -2.4081    0.1248   -4.5676 H   0  0
   -2.3909   -0.8667   -6.0505 H   0  0
    0.9547    0.1119   -7.0254 H   0  0
   -0.4684   -0.8741   -7.4556 H   0  0
    1.3956    1.3529   -0.0327 H   0  0
    0.5273   -0.2195   -0.0124 H   0  0
   -1.2743    0.8490    1.3929 H   0  0
    1.5541    1.1508    2.5457 H   0  0
    0.6747   -0.4074    2.3861 H   0  0
    1.2775    0.0233    4.9864 H   0  0
   -1.0285    1.6178    6.1071 H   0  0
    1.5014   -0.7239    7.4372 H   0  0
    3.1778    1.3993    8.4293 H   0  0
    1.9896    0.9803    9.7097 H   0  0
    2.6894   -1.4049    9.5787 H   0  0
    3.8786   -0.9864    8.2992 H   0  0
    5.0322    0.5563    9.8758 H   0  0
    3.8441    0.1371   11.1562 H   0  0
    4.5439   -2.2481   11.0250 H   0  0
    5.7332   -1.8294    9.7456 H   0  0
    6.7962   -0.3461   11.3040 H   0  0
    5.6882   -0.7370   12.4979 H   0  0
    6.3569   -3.0411   12.4495 H   0  0
    7.5461   -2.6225   11.1700 H   0  0
    8.6603   -1.0307   12.7260 H   0  0
    7.4721   -1.4498   14.0064 H   0  0
    8.2177   -3.8231   13.9219 H   0  0
    9.4070   -3.4046   12.6424 H   0  0
    9.3271   -2.2726   15.3798 H   0  0
   10.4400   -1.8799   14.1818 H   0  0
   10.4079   -3.4339   14.8229 H   0  0
   -0.3774   -1.1250    6.7829 H   0  0
  1  2  1  0
  1  8  1  0
  2  3  1  0
  3  4  1  0
  4  5  2  0
  5  6  1  0
  5  7  1  0
  8  9  1  0
  9 10  1  0
  9 28  1  0
 10 11  1  0
 11 12  2  0
 11 13  1  0
 13 14  1  0
 14 15  1  0
 14 27  1  0
 15 16  2  0
 15 17  1  0
 17 18  1  0
 18 19  1  0
 19 20  1  0
 20 21  1  0
 21 22  1  0
 22 23  1  0
 23 24  1  0
 24 25  1  0
 25 26  1  0
 28 29  1  0
 29 30  2  0
 29 31  1  0
 29 32  1  0
  1 33  1  0
  1 34  1  0
  2 35  1  0
  2 36  1  0
  3 37  1  0
  3 38  1  0
  4 39  1  0
  6 40  1  0
  6 41  1  0
  7 42  1  0
  7 43  1  0
  8 44  1  0
  8 45  1  0
  9 46  1  0
 10 47  1  0
 10 48  1  0
 13 49  1  0
 14 50  1  0
 17 51  1  0
 18 52  1  0
 18 53  1  0
 19 54  1  0
 19 55  1  0
 20 56  1  0
 20 57  1  0
 21 58  1  0
 21 59  1  0
 22 60  1  0
 22 61  1  0
 23 62  1  0
 23 63  1  0
 24 64  1  0
 24 65  1  0
 25 66  1  0
 25 67  1  0
 26 68  1  0
 26 69  1  0
 26 70  1  0
 27 71  1  0
M  CHG  5   4   1  22   1  26   1  31  -1  32  -1
M  END
> <Name>
ZINC31416140

> <reference>
BDB50085452

> <quality>
0.638

> <status>
decoy

$$$$
ZINC05742726
  SciTegic06061311253D

 70 72  0  0  1  0            999 V2000
   -3.5258    5.6607    8.2604 C   0  0
   -2.7418    5.2037    7.0573 C   0  0
   -3.3609    5.1166    5.8285 C   0  0
   -2.6582    4.6978    4.7076 C   0  0
   -1.3162    4.3597    4.8081 C   0  0
   -0.6670    4.4392    6.0671 C   0  0
   -1.3964    4.8714    7.1932 C   0  0
   -0.8005    4.9604    8.4031 O   0  0
    0.5037    4.6358    8.5236 C   0  0
    1.1393    4.7149    9.7407 C   0  0
    2.4919    4.3791    9.8667 C   0  0
    3.0328    4.4587   10.9585 O   0  0
    3.2721    3.9308    8.7005 C   0  0
    2.6653    3.8381    7.4572 C   0  0
    1.2444    4.1929    7.3323 C   0  0
    0.6291    4.1184    6.1687 N   0  0
    3.4308    3.3926    6.2830 C   0  0
    3.9259    4.2124    5.5330 O   0  0
    3.5836    2.0762    6.0380 N   0  0
    4.4137    1.6315    4.9158 C   0  0  1  0  0  0
    5.8592    1.4599    5.3872 C   0  0  2  0  0  0
    6.4375    2.8248    5.7658 C   0  0
    6.6386    0.8875    4.3351 O   0  0
    3.8947    0.3150    4.3977 C   0  0
    2.9303   -0.1991    4.9130 O   0  0
    4.5038   -0.2866    3.3638 O   0  0
    3.9494   -1.5523    2.9179 C   0  0
    4.6014    3.6039    8.8448 N   0  0
    0.3697    5.1700   10.9537 C   0  0
   -0.5706    3.9144    3.6143 C   0  0
    0.6051    3.6191    3.7070 O   0  0
   -1.1932    3.8353    2.4216 N   0  0
   -0.4533    3.3934    1.2369 C   0  0  1  0  0  0
   -0.4560    1.8647    1.1747 C   0  0  1  0  0  0
    0.3167    1.4032   -0.0626 C   0  0
    0.1666    1.3390    2.3486 O   0  0
   -1.1098    3.9477   -0.0011 C   0  0
   -2.0948    4.6408    0.0962 O   0  0
   -0.6004    3.6716   -1.2119 O   0  0
   -1.2846    4.2391   -2.3600 C   0  0
   -2.9724    6.5273    8.6512 H   0  0
   -3.4216    4.8494    8.9958 H   0  0
   -4.5775    5.8974    8.0417 H   0  0
   -4.4243    5.3822    5.7356 H   0  0
   -3.1675    4.6335    3.7347 H   0  0
    3.1167    1.3828    6.6398 H   0  0
    4.3766    2.3820    4.1124 H   0  0
    5.8826    0.7958    6.2638 H   0  0
    5.8384    3.2661    6.5759 H   0  0
    6.4148    3.4896    4.8897 H   0  0
    7.4767    2.7022    6.1048 H   0  0
    6.6183    1.4846    3.5457 H   0  0
    2.8983   -1.3565    2.6593 H   0  0
    3.9639   -2.2218    3.7906 H   0  0
    4.5022   -1.9812    2.0691 H   0  0
    5.0507    3.6729    9.7691 H   0  0
    5.1466    3.2905    8.0291 H   0  0
   -0.4830    4.4795   11.0312 H   0  0
   -0.0328    6.1584   10.6870 H   0  0
    0.9717    5.1973   11.8740 H   0  0
   -2.1892    4.0855    2.3430 H   0  0
    0.5835    3.7561    1.2958 H   0  0
   -1.4928    1.5020    1.1159 H   0  0
    1.3538    1.7652   -0.0046 H   0  0
   -0.1620    1.8071   -0.9669 H   0  0
    0.3151    0.3041   -0.1079 H   0  0
   -0.3329    1.6369    3.1497 H   0  0
   -1.2949    5.3284   -2.2075 H   0  0
   -2.3234    3.8808   -2.3101 H   0  0
   -0.8080    3.9681   -3.3136 H   0  0
  1  2  1  0
  2  7  2  0
  2  3  1  0
  3  4  2  0
  4  5  1  0
  5  6  2  0
  5 30  1  0
  6 16  1  0
  6  7  1  0
  7  8  1  0
  8  9  1  0
  9 15  1  0
  9 10  2  0
 10 11  1  0
 10 29  1  0
 11 12  2  0
 11 13  1  0
 13 14  2  0
 13 28  1  0
 14 15  1  0
 14 17  1  0
 15 16  2  0
 17 18  2  0
 17 19  1  0
 19 20  1  0
 20 21  1  0
 20 24  1  0
 21 22  1  0
 21 23  1  0
 24 25  2  0
 24 26  1  0
 26 27  1  0
 30 31  2  0
 30 32  1  0
 32 33  1  0
 33 34  1  0
 33 37  1  0
 34 35  1  0
 34 36  1  0
 37 38  2  0
 37 39  1  0
 39 40  1  0
  1 41  1  0
  1 42  1  0
  1 43  1  0
  3 44  1  0
  4 45  1  0
 19 46  1  0
 20 47  1  0
 21 48  1  0
 22 49  1  0
 22 50  1  0
 22 51  1  0
 23 52  1  0
 27 53  1  0
 27 54  1  0
 27 55  1  0
 28 56  1  0
 28 57  1  0
 29 58  1  0
 29 59  1  0
 29 60  1  0
 32 61  1  0
 33 62  1  0
 34 63  1  0
 35 64  1  0
 35 65  1  0
 35 66  1  0
 36 67  1  0
 40 68  1  0
 40 69  1  0
 40 70  1  0
M  END
> <Name>
ZINC05742726

> <reference>
BDB50085452

> <quality>
0.637

> <status>
decoy

$$$$
ZINC04068887
  SciTegic06061311253D

 69 73  0  0  1  0            999 V2000
    6.9395   -1.7600    3.2669 C   0  0
    5.6120   -1.5878    2.7043 O   0  0
    5.5384   -1.2758    1.4008 C   0  0
    6.5475   -1.1935    0.7414 O   0  0
    4.1971   -1.0283    0.7599 C   0  0  1  0  0  0
    3.0475   -1.1112    1.8159 C   0  0
    2.4418    0.3271    1.8096 C   0  0  1  0  0  0
    3.5701    1.2370    2.3871 C   0  0
    4.1179    0.4279    0.2084 C   0  0  1  0  0  0
    2.5723    0.6868    0.2856 C   0  0  1  0  0  0
    1.8141   -0.2324   -0.5668 N   0  0
    0.5103    0.0750   -0.9316 C   0  0
   -0.0790    1.2538   -0.4908 C   0  0
   -1.3745    1.5571   -0.8551 C   0  0
   -2.0981    0.6922   -1.6614 C   0  0
   -1.5316   -0.4808   -2.1083 C   0  0
   -0.2198   -0.8032   -1.7483 C   0  0
    0.3926   -2.0558   -2.2231 C   0  0
    1.0723   -2.0561   -3.2305 O   0  0
   -2.4592   -1.5743   -3.1323 S   0  0
   -3.7284   -0.9665   -3.3303 O   0  0
   -1.6109   -1.9362   -4.2133 O   0  0
   -2.7269   -2.9549   -2.2580 N   0  5
   -3.4332   -2.8941   -1.0593 C   0  0
   -4.4713   -1.9808   -0.9110 C   0  0
   -5.1729   -1.9179    0.2720 C   0  0
   -4.8423   -2.7731    1.3275 C   0  0
   -3.7979   -3.6917    1.1792 C   0  0
   -3.1015   -3.7542   -0.0106 C   0  0
   -2.0891   -4.6502   -0.1600 O   0  0
   -5.5926   -2.7066    2.5943 C   0  0
   -5.3044   -3.4504    3.5110 O   0  0
    5.8987    0.7954    1.8416 C   0  0
    6.6444    1.9314    2.4930 C   0  0
    7.4229    2.7774    1.7254 C   0  0
    8.1035    3.8221    2.3223 C   0  0
    8.0132    4.0151    3.6882 C   0  0
    7.2385    3.1662    4.4564 C   0  0
    6.5545    2.1241    3.8589 C   0  0
    4.5824    1.2858    1.3244 N   0  3
    0.1993   -3.2015   -1.5403 O   0  5
   -6.5983   -1.8209    2.7360 O   0  5
    7.4777   -0.8179    3.0856 H   0  0
    7.4276   -2.5478    2.6743 H   0  0
    6.9163   -2.0137    4.3370 H   0  0
    4.0873   -1.7860   -0.0299 H   0  0
    3.4589   -1.3448    2.8090 H   0  0
    2.2906   -1.8428    1.4966 H   0  0
    1.4608    0.4171    2.2990 H   0  0
    3.1774    2.2456    2.5832 H   0  0
    3.9947    0.7824    3.2943 H   0  0
    4.6331    0.5857   -0.7506 H   0  0
    2.2022    1.6700   -0.0406 H   0  0
    2.2483   -1.1067   -0.8954 H   0  0
    0.4881    1.9457    0.1492 H   0  0
   -1.8364    2.4914   -0.5035 H   0  0
   -3.1304    0.9442   -1.9458 H   0  0
   -4.7325   -1.3072   -1.7405 H   0  0
   -5.9937   -1.1946    0.3867 H   0  0
   -3.5322   -4.3629    2.0092 H   0  0
   -1.3001   -4.1045   -0.4043 H   0  0
    6.4942    0.3976    1.0066 H   0  0
    5.7270   -0.0021    2.5795 H   0  0
    7.5008    2.6193    0.6396 H   0  0
    8.7169    4.4998    1.7104 H   0  0
    8.5578    4.8441    4.1637 H   0  0
    7.1663    3.3200    5.5432 H   0  0
    5.9387    1.4482    4.4703 H   0  0
    4.7096    2.2545    0.9983 H   0  0
  1  2  1  0
  2  3  1  0
  3  4  2  0
  3  5  1  0
  5  9  1  0
  5  6  1  0
  6  7  1  0
  7 10  1  0
  7  8  1  0
  8 40  1  0
  9 10  1  0
  9 40  1  0
 10 11  1  0
 11 12  1  0
 12 17  2  0
 12 13  1  0
 13 14  2  0
 14 15  1  0
 15 16  2  0
 16 17  1  0
 16 20  1  0
 17 18  1  0
 18 19  2  0
 18 41  1  0
 20 21  2  0
 20 22  2  0
 20 23  1  0
 23 24  1  0
 24 29  2  0
 24 25  1  0
 25 26  2  0
 26 27  1  0
 27 28  2  0
 27 31  1  0
 28 29  1  0
 29 30  1  0
 31 32  2  0
 31 42  1  0
 33 34  1  0
 33 40  1  0
 34 39  2  0
 34 35  1  0
 35 36  2  0
 36 37  1  0
 37 38  2  0
 38 39  1  0
  1 43  1  0
  1 44  1  0
  1 45  1  0
  5 46  1  0
  6 47  1  0
  6 48  1  0
  7 49  1  0
  8 50  1  0
  8 51  1  0
  9 52  1  0
 10 53  1  0
 11 54  1  0
 13 55  1  0
 14 56  1  0
 15 57  1  0
 25 58  1  0
 26 59  1  0
 28 60  1  0
 30 61  1  0
 33 62  1  0
 33 63  1  0
 35 64  1  0
 36 65  1  0
 37 66  1  0
 38 67  1  0
 39 68  1  0
 40 69  1  0
M  CHG  4  23  -1  40   1  41  -1  42  -1
M  END
> <Name>
ZINC04068887

> <reference>
BDB50085452

> <quality>
0.637

> <status>
decoy

$$$$
ZINC25026356
  SciTegic06061311253D

 67 68  0  0  1  0            999 V2000
   -3.7274    5.3261   -1.8821 C   0  0
   -3.1807    5.6431   -0.4887 C   0  0
   -2.1688    4.5701   -0.0817 C   0  0
   -1.6453    4.8735    1.2525 N   0  0
   -0.5193    5.6526    1.3842 C   0  0
   -0.0395    5.9352    2.6467 C   0  0
   -0.7134    5.4065    3.7636 C   0  0
   -0.3085    5.6370    4.8906 O   0  0
   -1.8091    4.6442    3.5793 N   0  0
   -2.2654    4.3839    2.3414 C   0  0
   -3.2570    3.6936    2.2037 O   0  0
    1.1098    6.7361    2.8150 N   0  0
    1.0785    8.1510    2.4365 C   0  0
    0.5196    8.9771    3.5968 C   0  0
    1.4141    8.9028    4.7087 O   0  0
    0.9832    9.6442    5.8519 C   0  0
    2.2379    6.1988    3.3245 C   0  0
    2.2401    5.0499    3.7145 O   0  0
    3.4949    7.0257    3.4092 C   0  0
    4.6180    6.1853    4.0200 C   0  0
    5.8750    7.0123    4.1046 C   0  0
    5.8728    8.1607    3.7148 O   0  0
    7.0017    6.4756    4.6135 N   0  0
    7.0645    5.0585    5.0096 C   0  0
    8.1337    4.3738    4.1476 C   0  0
    9.3518    5.1713    4.1069 N   0  0
    9.4081    6.4808    4.3541 C   0  0
   10.4689    7.0513    4.2120 O   0  0
    8.2165    7.2827    4.8016 C   0  0  1  0  0  0
    8.1165    8.5612    3.9672 C   0  0
    7.9434    8.2006    2.5142 C   0  0
    7.8602    7.0409    2.1854 O   0  0
    7.8816    9.1676    1.5854 O   0  0
    7.7140    8.7469    0.2059 C   0  0
    0.1173    6.1480    0.2715 N   0  0
   -4.2216    4.3435   -1.8684 H   0  0
   -2.9000    5.3097   -2.6068 H   0  0
   -4.4550    6.0972   -2.1754 H   0  0
   -2.6865    6.6257   -0.5034 H   0  0
   -4.0080    5.6595    0.2360 H   0  0
   -1.3400    4.5530   -0.8048 H   0  0
   -2.6625    3.5872   -0.0665 H   0  0
   -2.3028    4.2564    4.3959 H   0  0
    0.4371    8.2811    1.5524 H   0  0
    2.0983    8.4909    2.2029 H   0  0
    0.4127   10.0258    3.2823 H   0  0
   -0.4633    8.5804    3.8908 H   0  0
   -0.0033    9.2565    6.1459 H   0  0
    0.8666   10.6932    5.5421 H   0  0
    1.6997    9.5594    6.6822 H   0  0
    3.7885    7.3513    2.4003 H   0  0
    3.3130    7.9078    4.0408 H   0  0
    4.8021    5.3032    3.3891 H   0  0
    4.3253    5.8598    5.0291 H   0  0
    6.0890    4.5805    4.8368 H   0  0
    7.3412    4.9821    6.0715 H   0  0
    8.3623    3.3840    4.5696 H   0  0
    7.7503    4.2454    3.1246 H   0  0
   10.2314    4.6903    3.8707 H   0  0
    8.3251    7.5518    5.8626 H   0  0
    9.0352    9.1535    4.0903 H   0  0
    7.2516    9.1519    4.3034 H   0  0
    6.7907    8.1498    0.1739 H   0  0
    8.5576    8.0777   -0.0188 H   0  0
    7.6724    9.5950   -0.4934 H   0  0
   -0.2520    5.9338   -0.6659 H   0  0
    0.9602    6.7311    0.3736 H   0  0
  1  2  1  0
  2  3  1  0
  3  4  1  0
  4 10  1  0
  4  5  1  0
  5  6  2  0
  5 35  1  0
  6  7  1  0
  6 12  1  0
  7  8  2  0
  7  9  1  0
  9 10  1  0
 10 11  2  0
 12 13  1  0
 12 17  1  0
 13 14  1  0
 14 15  1  0
 15 16  1  0
 17 18  2  0
 17 19  1  0
 19 20  1  0
 20 21  1  0
 21 22  2  0
 21 23  1  0
 23 29  1  0
 23 24  1  0
 24 25  1  0
 25 26  1  0
 26 27  1  0
 27 28  2  0
 27 29  1  0
 29 30  1  0
 30 31  1  0
 31 32  2  0
 31 33  1  0
 33 34  1  0
  1 36  1  0
  1 37  1  0
  1 38  1  0
  2 39  1  0
  2 40  1  0
  3 41  1  0
  3 42  1  0
  9 43  1  0
 13 44  1  0
 13 45  1  0
 14 46  1  0
 14 47  1  0
 16 48  1  0
 16 49  1  0
 16 50  1  0
 19 51  1  0
 19 52  1  0
 20 53  1  0
 20 54  1  0
 24 55  1  0
 24 56  1  0
 25 57  1  0
 25 58  1  0
 26 59  1  0
 29 60  1  0
 30 61  1  0
 30 62  1  0
 34 63  1  0
 34 64  1  0
 34 65  1  0
 35 66  1  0
 35 67  1  0
M  END
> <Name>
ZINC25026356

> <reference>
BDB50085452

> <quality>
0.636

> <status>
decoy

$$$$
ZINC15449246
  SciTegic06061311253D

 84 86  0  0  1  0            999 V2000
   -4.1193   -2.2485   -4.1003 C   0  0
   -2.7331   -2.2421   -3.4528 C   0  0  1  0  0  0
   -1.9918   -0.9405   -3.8145 C   0  0  1  0  0  0
   -1.7720   -0.2381   -2.4524 C   0  0  1  0  0  0
   -2.8511   -0.9077   -1.5639 C   0  0  1  0  0  0
   -2.8620   -2.2770   -2.0216 O   0  0
   -2.4803   -0.8408   -0.1855 O   0  0
   -3.4738   -1.3459    0.7089 C   0  0  2  0  0  0
   -3.7371   -0.3183    1.8115 C   0  0  2  0  0  0
   -4.8009   -0.8591    2.7690 C   0  0  1  0  0  0
   -4.3068   -2.1644    3.3958 C   0  0  2  0  0  0
   -4.0434   -3.1919    2.2931 C   0  0  1  0  0  0
   -2.9797   -2.6512    1.3356 C   0  0  1  0  0  0
   -2.7337   -3.6108    0.3058 O   0  0
   -3.5820   -4.4111    2.8785 O   0  0
   -5.3254   -2.6822    4.3127 N   0  0
   -4.9607   -3.5069    5.3504 C   0  0
   -5.9166   -3.9928    6.2108 N   0  0
   -5.0469    0.1006    3.7988 O   0  0
   -4.2102    0.9315    1.2114 N   0  0
   -3.9818    2.1290    1.8471 C   0  0
   -3.3094    2.1534    3.0460 N   0  0
   -0.4610   -0.5016   -1.9485 O   0  0
    0.5038    0.4961   -2.2889 C   0  0  2  0  0  0
    1.9071   -0.0083   -1.9340 C   0  0  2  0  0  0
    1.9890   -0.2371   -0.4216 C   0  0  2  0  0  0
    1.6383    1.0663    0.3024 C   0  0  2  0  0  0
    0.2469    1.5277   -0.1391 C   0  0  2  0  0  0
    0.2295    1.6932   -1.5583 O   0  0
   -0.0863    2.8605    0.5345 C   0  0
   -1.4149    3.2525    0.1836 O   0  0
    2.6010    2.0697   -0.0271 O   0  0
    3.3148   -0.6375   -0.0698 O   0  0
    3.2811    0.8284   -3.7436 C   0  0
   -0.6494   -1.2523   -4.4789 C   0  0
   -0.8756   -1.9511   -5.7048 O   0  0
   -2.7963   -0.1284   -4.6720 O   0  0
   -3.6727   -3.7957    5.4670 N   0  3
   -4.4349    3.2232    1.2527 N   0  3
    2.9081    1.0014   -2.3271 N   0  3
   -4.6838   -1.3671   -3.7619 H   0  0
   -4.6562   -3.1614   -3.8031 H   0  0
   -4.0168   -2.2217   -5.1952 H   0  0
   -2.1794   -3.1203   -3.8162 H   0  0
   -1.8531    0.8579   -2.4996 H   0  0
   -3.8344   -0.4207   -1.6410 H   0  0
   -4.4046   -1.5350    0.1540 H   0  0
   -2.8063   -0.1292    2.3664 H   0  0
   -5.7316   -1.0482    2.2140 H   0  0
   -3.3761   -1.9754    3.9508 H   0  0
   -4.9741   -3.3809    1.7381 H   0  0
   -2.0489   -2.4622    1.8905 H   0  0
   -2.0452   -3.2618   -0.3141 H   0  0
   -4.2699   -4.7619    3.4980 H   0  0
   -6.3148   -2.4284    4.1799 H   0  0
   -6.9060   -3.7390    6.0780 H   0  0
   -5.6434   -4.6107    6.9883 H   0  0
   -5.3670    0.9455    3.3942 H   0  0
   -4.7140    0.9131    0.3132 H   0  0
   -2.9768    1.2747    3.4680 H   0  0
   -3.1383    3.0505    3.5223 H   0  0
    0.4506    0.7045   -3.3677 H   0  0
    2.1069   -0.9496   -2.4670 H   0  0
    1.2816   -1.0264   -0.1274 H   0  0
    1.6451    0.8990    1.3896 H   0  0
   -0.4996    0.7740    0.1518 H   0  0
    0.6234    3.6304    0.1976 H   0  0
   -0.0141    2.7478    1.6263 H   0  0
   -2.0550    2.5610    0.4871 H   0  0
    2.5957    2.2244   -1.0049 H   0  0
    3.9543    0.0717   -0.3308 H   0  0
    2.3832    0.9392   -4.3694 H   0  0
    3.7005   -0.1785   -3.8860 H   0  0
    4.0274    1.5844   -4.0291 H   0  0
   -0.1157   -0.3130   -4.6860 H   0  0
   -0.0433   -1.8781   -3.8074 H   0  0
   -1.4202   -1.3886   -6.3108 H   0  0
   -3.6430    0.0914   -4.2084 H   0  0
   -2.9661   -3.4252    4.8156 H   0  0
   -3.3751   -4.4118    6.2369 H   0  0
   -4.9374    3.1916    0.3542 H   0  0
   -4.2758    4.1324    1.7099 H   0  0
    3.7474    0.8985   -1.7389 H   0  0
    2.5145    1.9434   -2.1910 H   0  0
  1  2  1  0
  2  6  1  0
  2  3  1  0
  3  4  1  0
  3 35  1  0
  3 37  1  0
  4  5  1  0
  4 23  1  0
  5  6  1  0
  5  7  1  0
  7  8  1  0
  8 13  1  0
  8  9  1  0
  9 10  1  0
  9 20  1  0
 10 11  1  0
 10 19  1  0
 11 12  1  0
 11 16  1  0
 12 13  1  0
 12 15  1  0
 13 14  1  0
 16 17  1  0
 17 18  1  0
 17 38  2  0
 20 21  1  0
 21 22  1  0
 21 39  2  0
 23 24  1  0
 24 29  1  0
 24 25  1  0
 25 26  1  0
 25 40  1  0
 26 27  1  0
 26 33  1  0
 27 28  1  0
 27 32  1  0
 28 29  1  0
 28 30  1  0
 30 31  1  0
 34 40  1  0
 35 36  1  0
  1 41  1  0
  1 42  1  0
  1 43  1  0
  2 44  1  0
  4 45  1  0
  5 46  1  0
  8 47  1  0
  9 48  1  0
 10 49  1  0
 11 50  1  0
 12 51  1  0
 13 52  1  0
 14 53  1  0
 15 54  1  0
 16 55  1  0
 18 56  1  0
 18 57  1  0
 19 58  1  0
 20 59  1  0
 22 60  1  0
 22 61  1  0
 24 62  1  0
 25 63  1  0
 26 64  1  0
 27 65  1  0
 28 66  1  0
 30 67  1  0
 30 68  1  0
 31 69  1  0
 32 70  1  0
 33 71  1  0
 34 72  1  0
 34 73  1  0
 34 74  1  0
 35 75  1  0
 35 76  1  0
 36 77  1  0
 37 78  1  0
 38 79  1  0
 38 80  1  0
 39 81  1  0
 39 82  1  0
 40 83  1  0
 40 84  1  0
M  CHG  3  38   1  39   1  40   1
M  END
> <Name>
ZINC15449246

> <reference>
BDB50085452

> <quality>
0.635

> <status>
decoy

$$$$
ZINC09235602
  SciTegic06061311253D

 63 66  0  0  1  0            999 V2000
    5.2181   -2.2898    1.9915 C   0  0
    4.3547   -1.3346   -0.0590 C   0  0
    3.1211   -2.2000   -0.0457 C   0  0
    3.0839   -3.5656   -0.0486 C   0  0
    1.7976   -3.9567   -0.0391 N   0  0
    1.0318   -2.9217   -0.0255 N   0  0
    1.8382   -1.7747   -0.0257 N   0  0
    1.3995   -0.4459   -0.0137 C   0  0
    0.0021   -0.0041    0.0020 C   0  0
   -0.0156    1.3005    0.0092 N   0  0
    1.3270    1.7526   -0.0012 O   0  0
    2.1636    0.6094   -0.0153 N   0  0
   -1.1139   -0.8334    0.0086 N   0  0
    4.2566   -4.4598   -0.0651 C   0  0
    5.3789   -3.9909   -0.0730 O   0  0
    4.0847   -5.7966   -0.0714 N   0  0
    5.1986   -6.6460   -0.0871 N   0  0
    5.0331   -7.9334   -0.0932 C   0  0
    6.2053   -8.8272   -0.1096 C   0  0
    7.4955   -8.2908   -0.1245 C   0  0
    8.5884   -9.1302   -0.1350 C   0  0
    8.4088  -10.5075   -0.1410 C   0  0
    7.1282  -11.0452   -0.1316 C   0  0
    6.0295  -10.2135   -0.1162 C   0  0
    9.4890  -11.3312   -0.1566 O   0  0
   10.7769  -10.7120   -0.1656 C   0  0
   11.8451  -11.7749   -0.1825 C   0  0
   11.5353  -12.9427   -0.1864 O   0  0
    5.8249   -0.0331    1.3578 C   0  0  2  0  0  0
    7.0832   -0.5658    0.6696 C   0  0
    8.1768    0.5036    0.7074 C   0  0
    8.4995    0.8518    2.1619 C   0  0
    7.2412    1.3846    2.8501 C   0  0
    6.1477    0.3151    2.8123 C   0  0
    4.7523   -1.0498    1.3359 N   0  3
   13.1407  -11.4242   -0.1931 O   0  5
    6.0807   -2.6911    1.4393 H   0  0
    4.4055   -3.0312    1.9862 H   0  0
    5.5129   -2.0733    3.0289 H   0  0
    4.1377   -0.3902   -0.5796 H   0  0
    5.1704   -1.8639   -0.5733 H   0  0
   -0.9180   -1.8446    0.0016 H   0  0
   -2.0801   -0.4766    0.0197 H   0  0
    3.1343   -6.1937   -0.0647 H   0  0
    4.0182   -8.3575   -0.0861 H   0  0
    7.6386   -7.2002   -0.1278 H   0  0
    9.6045   -8.7088   -0.1386 H   0  0
    6.9908  -12.1366   -0.1365 H   0  0
    5.0157  -10.6402   -0.1091 H   0  0
   10.8928  -10.0911    0.7350 H   0  0
   10.8742  -10.0808   -1.0612 H   0  0
    5.4837    0.8632    0.8190 H   0  0
    6.8523   -0.8162   -0.3763 H   0  0
    7.4342   -1.4671    1.1935 H   0  0
    9.0818    0.1204    0.2132 H   0  0
    7.8272    1.4058    0.1841 H   0  0
    9.2855    1.6208    2.1903 H   0  0
    8.8495   -0.0498    2.6859 H   0  0
    7.4730    1.6344    3.8960 H   0  0
    6.8896    2.2861    2.3269 H   0  0
    5.2432    0.6986    3.3071 H   0  0
    6.4987   -0.5858    3.3370 H   0  0
    3.9364   -0.6864    1.8489 H   0  0
  1 35  1  0
  2  3  1  0
  2 35  1  0
  3  7  1  0
  3  4  2  0
  4  5  1  0
  4 14  1  0
  5  6  2  0
  6  7  1  0
  7  8  1  0
  8 12  2  0
  8  9  1  0
  9 10  2  0
  9 13  1  0
 10 11  1  0
 11 12  1  0
 14 15  2  0
 14 16  1  0
 16 17  1  0
 17 18  2  0
 18 19  1  0
 19 24  2  0
 19 20  1  0
 20 21  2  0
 21 22  1  0
 22 23  2  0
 22 25  1  0
 23 24  1  0
 25 26  1  0
 26 27  1  0
 27 28  2  0
 27 36  1  0
 29 34  1  0
 29 30  1  0
 29 35  1  0
 30 31  1  0
 31 32  1  0
 32 33  1  0
 33 34  1  0
  1 37  1  0
  1 38  1  0
  1 39  1  0
  2 40  1  0
  2 41  1  0
 13 42  1  0
 13 43  1  0
 16 44  1  0
 18 45  1  0
 20 46  1  0
 21 47  1  0
 23 48  1  0
 24 49  1  0
 26 50  1  0
 26 51  1  0
 29 52  1  0
 30 53  1  0
 30 54  1  0
 31 55  1  0
 31 56  1  0
 32 57  1  0
 32 58  1  0
 33 59  1  0
 33 60  1  0
 34 61  1  0
 34 62  1  0
 35 63  1  0
M  CHG  2  35   1  36  -1
M  END
> <Name>
ZINC09235602

> <reference>
BDB50085452

> <quality>
0.634

> <status>
decoy

$$$$
ZINC16942527
  SciTegic06061311253D

 57 59  0  0  1  0            999 V2000
    0.0224   13.9186    3.5266 C   0  0
   -0.0239   13.6979    2.1156 O   0  0
   -0.3190   12.4384    1.6972 C   0  0
   -0.5590   11.4386    2.6282 C   0  0
   -0.8641   10.1606    2.2093 C   0  0
   -0.9209    9.8680    0.8443 C   0  0
   -0.6795   10.8755   -0.0931 C   0  0
   -0.3801   12.1555    0.3346 C   0  0
   -0.1445   13.1386   -0.5752 O   0  0
   -0.2235   12.7774   -1.9556 C   0  0
   -1.2408    8.5008    0.3942 C   0  0
   -1.4647    7.5663    1.2663 N   0  0
   -1.7687    6.2673    0.8386 N   0  0
   -2.0232    5.2052    1.8179 C   0  0
   -1.0792    4.0962    1.5990 N   0  0
   -1.2252    3.5158    0.0188 P   0  3
   -1.1232    4.8549   -0.9417 N   0  0
   -1.8315    5.9726   -0.5125 C   0  0
   -2.7484    2.9285   -0.1375 N   0  5
   -2.9480    1.6296   -0.5722 C   0  0
   -1.8985    0.8455   -0.7704 N   0  0
   -2.0549   -0.4024   -1.1802 C   0  0
   -3.3341   -0.8824   -1.4131 C   0  0
   -4.4091   -0.0336   -1.2012 C   0  0
   -4.1837    1.2018   -0.7856 N   0  0
   -1.2943    3.0211    2.5766 C   0  0  1  0  0  0
   -1.1398    3.5805    3.9922 C   0  0
    0.2819    4.0351    4.2003 C   0  0
    1.1132    3.8397    3.3390 O   0  0
    0.6296    4.6586    5.3434 N   0  0
   -2.6822    2.4586    2.4075 C   0  0
   -3.6269    3.2039    2.2985 O   0  0
   -2.5497    6.7577   -1.3029 N   0  0
   -2.8687    1.1297    2.3780 O   0  5
    0.7686   13.2156    3.9252 H   0  0
   -0.9622   13.6234    3.9182 H   0  0
    0.2665   14.9591    3.7867 H   0  0
   -0.5058   11.6656    3.7032 H   0  0
   -1.0627    9.3717    2.9497 H   0  0
   -0.7276   10.6507   -1.1688 H   0  0
   -1.2327   12.3682   -2.1110 H   0  0
    0.4982   11.9605   -2.1033 H   0  0
   -0.0212   13.6234   -2.6290 H   0  0
   -1.2897    8.2730   -0.6808 H   0  0
   -1.8898    5.6041    2.8343 H   0  0
   -3.0532    4.8370    1.7015 H   0  0
   -0.3932    2.6670   -0.2563 H   0  0
   -0.5672    4.8623   -1.8087 H   0  0
   -1.1802   -1.0514   -1.3343 H   0  0
   -3.4927   -1.9146   -1.7586 H   0  0
   -5.4373   -0.3831   -1.3765 H   0  0
   -0.5534    2.2244    2.4143 H   0  0
   -1.8204    4.4343    4.1255 H   0  0
   -1.3849    2.7981    4.7256 H   0  0
   -0.0764    4.8244    6.0748 H   0  0
    1.6013    4.9693    5.4856 H   0  0
   -3.0533    7.5726   -0.9244 H   0  0
  1  2  1  0
  2  3  1  0
  3  8  2  0
  3  4  1  0
  4  5  2  0
  5  6  1  0
  6  7  2  0
  6 11  1  0
  7  8  1  0
  8  9  1  0
  9 10  1  0
 11 12  2  0
 12 13  1  0
 13 18  1  0
 13 14  1  0
 14 15  1  0
 15 16  1  0
 15 26  1  0
 16 17  1  0
 16 19  1  0
 17 18  1  0
 18 33  2  0
 19 20  1  0
 20 25  2  0
 20 21  1  0
 21 22  2  0
 22 23  1  0
 23 24  2  0
 24 25  1  0
 26 27  1  0
 26 31  1  0
 27 28  1  0
 28 29  2  0
 28 30  1  0
 31 32  2  0
 31 34  1  0
  1 35  1  0
  1 36  1  0
  1 37  1  0
  4 38  1  0
  5 39  1  0
  7 40  1  0
 10 41  1  0
 10 42  1  0
 10 43  1  0
 11 44  1  0
 14 45  1  0
 14 46  1  0
 16 47  1  0
 17 48  1  0
 22 49  1  0
 23 50  1  0
 24 51  1  0
 26 52  1  0
 27 53  1  0
 27 54  1  0
 30 55  1  0
 30 56  1  0
 33 57  1  0
M  CHG  3  16   1  19  -1  34  -1
M  END
> <Name>
ZINC16942527

> <reference>
BDB50085452

> <quality>
0.633

> <status>
decoy

$$$$
ZINC05729436
  SciTegic06061311253D

 67 71  0  0  0  0            999 V2000
   -2.7372    9.6077   -4.8491 C   0  0
   -2.4176    8.1364   -4.9123 C   0  0
   -3.3059    7.1177   -4.9496 C   0  0
   -2.4915    5.9545   -5.0024 C   0  0
   -1.2533    6.3753   -4.9866 N   0  0
   -1.1968    7.5823   -4.9421 O   0  0
   -2.9241    4.6336   -5.0543 N   0  5
   -1.8187    3.4019   -5.1116 S   0  0
   -0.8866    3.7397   -6.1296 O   0  0
   -2.5612    2.1904   -5.1301 O   0  0
   -0.9323    3.4261   -3.5890 C   0  0
   -1.3911    2.6900   -2.5119 C   0  0
   -0.6987    2.7063   -1.3172 C   0  0
    0.4599    3.4638   -1.1980 C   0  0
    0.9182    4.2017   -2.2823 C   0  0
    0.2208    4.1808   -3.4740 C   0  0
    1.1627    3.4830    0.0092 N   0  0
    2.3706    4.1390    0.0924 C   0  0
    3.5780    3.4889   -0.2375 C   0  0
    3.5838    2.1495   -0.6613 C   0  0
    4.7634    1.5464   -0.9734 C   0  0
    5.9682    2.2414   -0.8781 C   0  0
    6.0008    3.5386   -0.4711 C   0  0
    4.8020    4.1994   -0.1388 C   0  0
    4.8206    5.4721    0.2624 N   0  0
    3.7097    6.1218    0.5822 C   0  0
    2.4422    5.4855    0.5046 C   0  0
    1.2841    6.1961    0.8542 C   0  0
    1.3597    7.4950    1.2573 C   0  0
    2.5731    8.1624    1.3446 C   0  0
    3.7609    7.5201    1.0198 C   0  0
    5.0471    8.2301    1.1127 C   0  0
    6.0805    7.6567    0.8250 O   0  0
    5.0795    9.5156    1.5164 N   0  0
    6.3595   10.2222    1.6088 C   0  0  1  0  0  0
    6.1176   11.6551    2.0875 C   0  0
    7.3662   12.3444    2.1776 O   0  0
    7.2705    9.4994    2.6031 C   0  0
    6.5989    9.3705    3.8578 O   0  0
    7.0272   10.2501    0.2325 C   0  0
    6.1764   10.9252   -0.6961 O   0  0
   -2.1859   10.0062   -5.7136 H   0  0
   -2.1764    9.9330   -3.9605 H   0  0
   -3.8032    9.8786   -4.8320 H   0  0
   -4.4043    7.1759   -4.9411 H   0  0
   -2.3087    2.0908   -2.6069 H   0  0
   -1.0640    2.1203   -0.4610 H   0  0
    1.8356    4.8019   -2.1916 H   0  0
    0.5829    4.7651   -4.3328 H   0  0
    0.7774    3.0065    0.8371 H   0  0
    2.6395    1.5908   -0.7405 H   0  0
    4.7661    0.4976   -1.3050 H   0  0
    6.9083    1.7319   -1.1365 H   0  0
    6.9611    4.0706   -0.4016 H   0  0
    0.3043    5.6988    0.8022 H   0  0
    0.4346    8.0288    1.5205 H   0  0
    2.5945    9.2115    1.6746 H   0  0
    4.2044   10.0012    1.7599 H   0  0
    5.4630   12.1751    1.3725 H   0  0
    5.6378   11.6362    3.0772 H   0  0
    7.7988   12.3632    1.2873 H   0  0
    8.1961   10.0775    2.7412 H   0  0
    7.5168    8.4999    2.2153 H   0  0
    5.7661    8.8495    3.7354 H   0  0
    7.9880   10.7811    0.3017 H   0  0
    7.2014    9.2203   -0.1127 H   0  0
    6.0195   11.8526   -0.3873 H   0  0
  1  2  1  0
  2  6  1  0
  2  3  2  0
  3  4  1  0
  4  5  2  0
  4  7  1  0
  5  6  1  0
  7  8  1  0
  8  9  2  0
  8 10  2  0
  8 11  1  0
 11 16  2  0
 11 12  1  0
 12 13  2  0
 13 14  1  0
 14 15  2  0
 14 17  1  0
 15 16  1  0
 17 18  1  0
 18 27  2  0
 18 19  1  0
 19 24  1  0
 19 20  2  0
 20 21  1  0
 21 22  2  0
 22 23  1  0
 23 24  2  0
 24 25  1  0
 25 26  2  0
 26 31  1  0
 26 27  1  0
 27 28  1  0
 28 29  2  0
 29 30  1  0
 30 31  2  0
 31 32  1  0
 32 33  2  0
 32 34  1  0
 34 35  1  0
 35 36  1  0
 35 38  1  0
 35 40  1  0
 36 37  1  0
 38 39  1  0
 40 41  1  0
  1 42  1  0
  1 43  1  0
  1 44  1  0
  3 45  1  0
 12 46  1  0
 13 47  1  0
 15 48  1  0
 16 49  1  0
 17 50  1  0
 20 51  1  0
 21 52  1  0
 22 53  1  0
 23 54  1  0
 28 55  1  0
 29 56  1  0
 30 57  1  0
 34 58  1  0
 36 59  1  0
 36 60  1  0
 37 61  1  0
 38 62  1  0
 38 63  1  0
 39 64  1  0
 40 65  1  0
 40 66  1  0
 41 67  1  0
M  CHG  1   7  -1
M  END
> <Name>
ZINC05729436

> <reference>
BDB50085452

> <quality>
0.626

> <status>
decoy

$$$$
ZINC09147651
  SciTegic06061311253D

 49 51  0  0  0  0            999 V2000
   13.2143    7.3739    0.0059 C   0  0
   11.9660    6.6931   -0.1372 O   0  0
   11.3619    6.3201    1.1030 C   0  0
   10.0585    5.6131    0.8342 C   0  0
    9.6837    5.4452   -0.3071 O   0  0
    9.3092    5.1674    1.8620 N   0  0
    8.1046    4.5140    1.6136 C   0  0
    7.5134    4.2280    0.4651 N   0  0
    6.4082    3.6226    0.4147 N   0  0
    5.7708    3.2355    1.5100 C   0  0
    6.9101    3.8282    2.7577 S   0  0
    4.2370    2.3868    1.6880 S   0  0
    3.6744    2.1345   -0.0181 C   0  0
    2.3538    1.4086   -0.0094 C   0  0
    1.2074    2.1173    0.0286 C   0  0
   -0.0293    1.4246    0.0364 C   0  0
   -1.0888    2.0318    0.0655 O   0  0
   -0.0020    0.0027    0.0035 C   0  0
    1.1937   -0.6265   -0.0336 C   0  0
    2.3374    0.0712   -0.0396 O   0  0
   -1.1599   -0.7118    0.0089 O   0  0
   -1.8015   -0.8451   -1.1678 C   0  0
   -1.2939   -0.4233   -2.1877 O   0  0
   -3.1225   -1.5043   -1.2181 C   0  0
   -3.7063   -1.9954   -0.0486 C   0  0
   -4.9425   -2.6052   -0.1020 C   0  0
   -5.5989   -2.7405   -1.3125 C   0  0
   -5.0236   -2.2612   -2.4761 C   0  0
   -3.7905   -1.6442   -2.4363 C   0  0
   -7.1748   -3.5263   -1.3725 S   0  0
   -7.7415   -3.3994   -0.0756 O   0  0
   -7.8260   -3.0420   -2.5390 O   0  0
   -6.9073   -5.1423   -1.6161 N   0  0
   13.8926    6.7094    0.5612 H   0  0
   13.0339    8.2731    0.6132 H   0  0
   13.6429    7.6418   -0.9711 H   0  0
   11.1722    7.2208    1.7053 H   0  0
   12.0369    5.6472    1.6521 H   0  0
    9.6274    5.3100    2.8312 H   0  0
    3.5529    3.1097   -0.5122 H   0  0
    4.4174    1.5360   -0.5656 H   0  0
    1.2315    3.2168    0.0532 H   0  0
    1.2282   -1.7257   -0.0592 H   0  0
   -3.1816   -1.8962    0.9131 H   0  0
   -5.4075   -2.9847    0.8198 H   0  0
   -5.5508   -2.3725   -3.4351 H   0  0
   -3.3345   -1.2633   -3.3620 H   0  0
   -7.5451   -5.8378   -1.2034 H   0  0
   -6.1031   -5.4519   -2.1803 H   0  0
  1  2  1  0
  2  3  1  0
  3  4  1  0
  4  5  2  0
  4  6  1  0
  6  7  1  0
  7 11  1  0
  7  8  2  0
  8  9  1  0
  9 10  2  0
 10 11  1  0
 10 12  1  0
 12 13  1  0
 13 14  1  0
 14 20  1  0
 14 15  2  0
 15 16  1  0
 16 17  2  0
 16 18  1  0
 18 19  2  0
 18 21  1  0
 19 20  1  0
 21 22  1  0
 22 23  2  0
 22 24  1  0
 24 29  2  0
 24 25  1  0
 25 26  2  0
 26 27  1  0
 27 28  2  0
 27 30  1  0
 28 29  1  0
 30 31  2  0
 30 32  2  0
 30 33  1  0
  1 34  1  0
  1 35  1  0
  1 36  1  0
  3 37  1  0
  3 38  1  0
  6 39  1  0
 13 40  1  0
 13 41  1  0
 15 42  1  0
 19 43  1  0
 25 44  1  0
 26 45  1  0
 28 46  1  0
 29 47  1  0
 33 48  1  0
 33 49  1  0
M  END
> <Name>
ZINC09147651

> <reference>
BDB50085452

> <quality>
0.625

> <status>
decoy

$$$$
ZINC23236878
  SciTegic06061311253D

 71 73  0  0  1  0            999 V2000
    2.3369    8.0990    5.5447 C   0  0
    2.6503    6.6107    5.3781 C   0  0
    1.4203    5.8867    5.0478 N   0  0
    0.5826    5.3395    6.1179 C   0  0
    1.0325    3.9128    6.4388 C   0  0
    1.0550    5.7220    3.7441 C   0  0
    1.6925    6.1495    2.6662 N   0  0
    1.2800    5.9532    1.4417 C   0  0
    1.8846    6.3566    0.4673 O   0  0
   -0.0260    5.1739    1.3433 C   0  5
   -0.3495    4.9052    3.1316 S   0  0
    0.1688    3.8479    0.6052 C   0  0
   -1.1254    3.0758    0.6095 C   0  0
   -2.1069    3.5404    1.1496 O   0  0
   -1.1906    1.8666    0.0178 N   0  0
   -2.3611    1.1049    0.1096 C   0  0
   -2.2841   -0.2804    0.1916 C   0  0
   -3.4369   -1.0369    0.2873 C   0  0
   -4.6727   -0.4223    0.2913 C   0  0
   -4.7610    0.9679    0.2040 C   0  0
   -3.5973    1.7316    0.1129 C   0  0
   -6.0836    1.6289    0.2077 C   0  0
   -6.1582    2.8397    0.1312 O   0  0
   -7.2066    0.8888    0.2959 N   0  0
   -8.5170    1.5437    0.2995 C   0  0
   -9.6161    0.4848    0.4077 C   0  0
  -10.9847    1.1687    0.4115 C   0  0
  -12.0399    0.1520    0.5153 N   0  3
  -12.0024   -0.7713   -0.6407 C   0  0
  -13.2177   -1.6543   -0.7221 C   0  0
  -14.2512   -0.9807   -1.6491 C   0  0
  -14.9768    0.0920   -0.9776 C   0  0
  -14.0390    1.2224   -0.5043 C   0  0
  -13.3579    0.7787    0.7616 C   0  0
    1.6050    8.2322    6.3550 H   0  0
    1.9203    8.4943    4.6065 H   0  0
    3.2601    8.6433    5.7927 H   0  0
    3.3819    6.4784    4.5674 H   0  0
    3.0669    6.2153    6.3162 H   0  0
    0.6809    5.9654    7.0171 H   0  0
   -0.4682    5.3274    5.7927 H   0  0
    2.0829    3.9232    6.7653 H   0  0
    0.9346    3.2856    5.5405 H   0  0
    0.4039    3.5013    7.2423 H   0  0
    0.9486    3.2578    1.1088 H   0  0
    0.4728    4.0472   -0.4330 H   0  0
   -0.3790    1.5031   -0.5019 H   0  0
   -1.3024   -0.7764    0.1803 H   0  0
   -3.3692   -2.1324    0.3605 H   0  0
   -5.5880   -1.0281    0.3633 H   0  0
   -3.6605    2.8276    0.0439 H   0  0
   -7.1434   -0.1372    0.3608 H   0  0
   -8.5825    2.2284    1.1579 H   0  0
   -8.6468    2.1118   -0.6335 H   0  0
   -9.5514   -0.2000   -0.4507 H   0  0
   -9.4885   -0.0837    1.3407 H   0  0
  -11.1145    1.7369   -0.5214 H   0  0
  -11.0502    1.8534    1.2700 H   0  0
  -11.8632   -0.4395    1.3398 H   0  0
  -11.1056   -1.4039   -0.5654 H   0  0
  -11.9259   -0.1822   -1.5665 H   0  0
  -12.9355   -2.6339   -1.1354 H   0  0
  -13.6508   -1.7816    0.2810 H   0  0
  -14.9708   -1.7362   -1.9975 H   0  0
  -13.7328   -0.5677   -2.5270 H   0  0
  -15.7224    0.5095   -1.6703 H   0  0
  -15.5080   -0.3222   -0.1080 H   0  0
  -14.6256    2.1319   -0.3077 H   0  0
  -13.2837    1.4237   -1.2783 H   0  0
  -13.2233    1.6502    1.4192 H   0  0
  -14.0052    0.0574    1.2819 H   0  0
  1  2  1  0
  2  3  1  0
  3  4  1  0
  3  6  1  0
  4  5  1  0
  6 11  1  0
  6  7  2  0
  7  8  1  0
  8  9  2  0
  8 10  1  0
 10 11  1  0
 10 12  1  0
 12 13  1  0
 13 14  2  0
 13 15  1  0
 15 16  1  0
 16 21  2  0
 16 17  1  0
 17 18  2  0
 18 19  1  0
 19 20  2  0
 20 21  1  0
 20 22  1  0
 22 23  2  0
 22 24  1  0
 24 25  1  0
 25 26  1  0
 26 27  1  0
 27 28  1  0
 28 34  1  0
 28 29  1  0
 29 30  1  0
 30 31  1  0
 31 32  1  0
 32 33  1  0
 33 34  1  0
  1 35  1  0
  1 36  1  0
  1 37  1  0
  2 38  1  0
  2 39  1  0
  4 40  1  0
  4 41  1  0
  5 42  1  0
  5 43  1  0
  5 44  1  0
 12 45  1  0
 12 46  1  0
 15 47  1  0
 17 48  1  0
 18 49  1  0
 19 50  1  0
 21 51  1  0
 24 52  1  0
 25 53  1  0
 25 54  1  0
 26 55  1  0
 26 56  1  0
 27 57  1  0
 27 58  1  0
 28 59  1  0
 29 60  1  0
 29 61  1  0
 30 62  1  0
 30 63  1  0
 31 64  1  0
 31 65  1  0
 32 66  1  0
 32 67  1  0
 33 68  1  0
 33 69  1  0
 34 70  1  0
 34 71  1  0
M  CHG  2  10  -1  28   1
M  END
> <Name>
ZINC23236878

> <reference>
BDB50085452

> <quality>
0.624

> <status>
decoy

$$$$
ZINC20109352
  SciTegic06061311253D

 70 73  0  0  1  0            999 V2000
   -4.5861   -5.3534    7.5656 C   0  0
   -3.4814   -6.2626    7.0926 C   0  0
   -3.0135   -7.2550    7.9070 C   0  0
   -1.9961   -8.0975    7.4809 C   0  0
   -1.4380   -7.9495    6.2292 C   0  0
   -1.8976   -6.9461    5.3829 C   0  0
   -2.9298   -6.0935    5.8187 C   0  0
   -3.4069   -5.0403    4.9205 C   0  0
   -2.8346   -4.9244    3.6967 C   0  0
   -1.8062   -5.8086    3.3061 C   0  0
   -1.3088   -5.6897    2.1998 O   0  0
   -1.3580   -6.7756    4.1257 N   0  0
   -3.3026   -3.8513    2.7477 C   0  0
   -2.4176   -2.6837    2.8539 N   0  0
   -2.6096   -1.9924    4.1358 C   0  0
   -4.0562   -1.5055    4.2410 C   0  0
   -4.2646   -0.8136    5.5896 C   0  0
   -5.6471   -0.3255    5.6811 N   0  3
   -5.8520    0.8426    4.8122 C   0  0
   -7.3167    1.2809    4.8924 C   0  0
   -7.6534    1.5541    6.2552 O   0  0
   -7.4664    0.4378    7.1294 C   0  0
   -6.0032   -0.0090    7.0719 C   0  0
   -2.6198   -1.7654    1.7252 C   0  0
   -1.5386   -0.7156    1.7319 C   0  0
   -1.5769    0.4433    2.3429 N   0  0
   -0.4657    1.0526    2.1106 N   0  0
    0.2827    0.3100    1.3717 N   0  0
   -0.3459   -0.7863    1.1120 N   0  0
    0.1481   -1.9013    0.3003 C   0  0
   -0.2561   -1.6876   -1.1598 C   0  0
    0.2258   -2.7752   -1.9515 O   0  0
   -0.0997   -2.6729   -3.3392 C   0  0
   -0.3335   -8.8710    5.7797 C   0  0
   -5.3776   -5.4502    6.8079 H   0  0
   -4.1752   -4.3370    7.4764 H   0  0
   -4.9446   -5.5761    8.5814 H   0  0
   -3.4470   -7.3874    8.9093 H   0  0
   -1.6313   -8.8916    8.1490 H   0  0
   -4.2118   -4.3581    5.2316 H   0  0
   -0.6006   -7.3980    3.8098 H   0  0
   -3.2784   -4.2366    1.7177 H   0  0
   -4.3306   -3.5559    3.0047 H   0  0
   -1.9283   -1.1308    4.1947 H   0  0
   -2.3958   -2.6861    4.9623 H   0  0
   -4.7398   -2.3635    4.1604 H   0  0
   -4.2637   -0.7937    3.4284 H   0  0
   -3.5703    0.0349    5.6788 H   0  0
   -4.0746   -1.5298    6.4026 H   0  0
   -6.2693   -1.0790    5.3556 H   0  0
   -5.6054    0.5769    3.7736 H   0  0
   -5.2040    1.6666    5.1455 H   0  0
   -7.4617    2.1895    4.2896 H   0  0
   -7.9630    0.4775    4.5091 H   0  0
   -7.7200    0.7308    8.1589 H   0  0
   -8.1155   -0.3916    6.8119 H   0  0
   -5.8680   -0.9030    7.6983 H   0  0
   -5.3579    0.8012    7.4421 H   0  0
   -3.6023   -1.2794    1.8179 H   0  0
   -2.5770   -2.3290    0.7815 H   0  0
    1.2446   -1.9505    0.3732 H   0  0
   -0.2864   -2.8433    0.6661 H   0  0
   -1.3525   -1.6387   -1.2335 H   0  0
    0.1785   -0.7464   -1.5277 H   0  0
    0.3262   -1.7293   -3.7110 H   0  0
   -1.1953   -2.6156   -3.4195 H   0  0
    0.2896   -3.5289   -3.9099 H   0  0
   -0.7508   -9.8842    5.8759 H   0  0
    0.4513   -8.7691    6.5437 H   0  0
    0.0363   -8.6619    4.7650 H   0  0
  1  2  1  0
  2  7  2  0
  2  3  1  0
  3  4  2  0
  4  5  1  0
  5  6  2  0
  5 34  1  0
  6 12  1  0
  6  7  1  0
  7  8  1  0
  8  9  2  0
  9 10  1  0
  9 13  1  0
 10 11  2  0
 10 12  1  0
 13 14  1  0
 14 15  1  0
 14 24  1  0
 15 16  1  0
 16 17  1  0
 17 18  1  0
 18 23  1  0
 18 19  1  0
 19 20  1  0
 20 21  1  0
 21 22  1  0
 22 23  1  0
 24 25  1  0
 25 29  1  0
 25 26  2  0
 26 27  1  0
 27 28  2  0
 28 29  1  0
 29 30  1  0
 30 31  1  0
 31 32  1  0
 32 33  1  0
  1 35  1  0
  1 36  1  0
  1 37  1  0
  3 38  1  0
  4 39  1  0
  8 40  1  0
 12 41  1  0
 13 42  1  0
 13 43  1  0
 15 44  1  0
 15 45  1  0
 16 46  1  0
 16 47  1  0
 17 48  1  0
 17 49  1  0
 18 50  1  0
 19 51  1  0
 19 52  1  0
 20 53  1  0
 20 54  1  0
 22 55  1  0
 22 56  1  0
 23 57  1  0
 23 58  1  0
 24 59  1  0
 24 60  1  0
 30 61  1  0
 30 62  1  0
 31 63  1  0
 31 64  1  0
 33 65  1  0
 33 66  1  0
 33 67  1  0
 34 68  1  0
 34 69  1  0
 34 70  1  0
M  CHG  1  18   1
M  END
> <Name>
ZINC20109352

> <reference>
BDB50084673

> <quality>
0.865

> <status>
decoy

$$$$
ZINC14883596
  SciTegic06061311253D

 65 67  0  0  1  0            999 V2000
  -12.6500    3.1069    5.6107 C   0  0
  -11.5307    3.7777    4.8119 C   0  0
  -12.2075    6.0080    5.4679 C   0  0
  -13.1340    7.1433    5.0282 C   0  0
  -11.0354    5.6642    3.3773 C   0  0
  -11.2049    4.9737    2.0225 C   0  0
  -10.1906    5.4719    1.0902 N   0  0
  -10.4752    6.6408    0.2542 C   0  0
  -10.9929    6.1788   -1.1094 C   0  0
   -8.9957    4.8547    1.0015 C   0  0
   -8.7213    3.9478    1.7647 O   0  0
   -8.0253    5.2768   -0.0160 C   0  0
   -6.7699    4.8005   -0.2405 C   0  0
   -5.9930    5.3419   -1.2732 C   0  0
   -4.6691    4.9999   -1.6819 C   0  0
   -4.1177    5.6514   -2.6924 N   0  0
   -4.7539    6.6056   -3.3479 C   0  0
   -5.9791    6.9680   -3.0192 N   0  0
   -6.6049    6.3771   -2.0220 C   0  0
   -8.2008    6.5405   -1.2642 S   0  0
   -3.9708    4.0056   -1.0274 N   0  0
   -2.6680    3.5692   -1.5360 C   0  0
   -2.1122    2.4653   -0.6340 C   0  0  2  0  0  0
   -1.8429    3.0397    0.7668 C   0  0
   -0.9960    2.0036    1.5618 C   0  0
    0.1696    1.4445    0.2489 S   0  0
    0.2776    0.0285    0.2990 O   0  0
    1.3468    2.2381    0.3073 O   0  0
   -0.7981    1.9183   -1.2416 C   0  0
   -6.2169    3.6938    0.6200 C   0  0
  -12.0108    5.0889    4.3271 N   0  3
  -13.5300    2.9588    4.9675 H   0  0
  -12.9236    3.7364    6.4703 H   0  0
  -12.2997    2.1299    5.9750 H   0  0
  -11.2594    3.1453    3.9537 H   0  0
  -10.6530    3.9235    5.4587 H   0  0
  -11.2372    6.4232    5.7779 H   0  0
  -12.6645    5.4616    6.3062 H   0  0
  -14.1064    6.7334    4.7175 H   0  0
  -12.6804    7.6930    4.1903 H   0  0
  -13.2860    7.8327    5.8718 H   0  0
  -11.2204    6.7430    3.2680 H   0  0
  -10.0145    5.4968    3.7512 H   0  0
  -11.0856    3.8873    2.1470 H   0  0
  -12.2068    5.1892    1.6227 H   0  0
  -11.2379    7.2646    0.7432 H   0  0
   -9.5549    7.2274    0.1166 H   0  0
  -11.9139    5.5929   -0.9737 H   0  0
  -10.2311    5.5549   -1.5998 H   0  0
  -11.2068    7.0561   -1.7376 H   0  0
   -4.2509    7.1093   -4.1865 H   0  0
   -4.3655    3.5704   -0.1814 H   0  0
   -1.9719    4.4209   -1.5433 H   0  0
   -2.7845    3.1821   -2.5590 H   0  0
   -2.8422    1.6462   -0.5554 H   0  0
   -2.7968    3.2129    1.2864 H   0  0
   -1.2843    3.9832    0.6787 H   0  0
   -0.4392    2.4941    2.3739 H   0  0
   -1.6190    1.1602    1.8942 H   0  0
   -0.9980    1.0280   -1.8559 H   0  0
   -0.2690    2.7084   -1.7947 H   0  0
   -6.9406    2.8706    0.5274 H   0  0
   -6.2839    4.0722    1.6507 H   0  0
   -5.1954    3.3886    0.3492 H   0  0
  -12.9110    4.9579    3.8439 H   0  0
  1  2  1  0
  2 31  1  0
  3  4  1  0
  3 31  1  0
  5  6  1  0
  5 31  1  0
  6  7  1  0
  7  8  1  0
  7 10  1  0
  8  9  1  0
 10 11  2  0
 10 12  1  0
 12 20  1  0
 12 13  2  0
 13 14  1  0
 13 30  1  0
 14 19  1  0
 14 15  2  0
 15 16  1  0
 15 21  1  0
 16 17  2  0
 17 18  1  0
 18 19  2  0
 19 20  1  0
 21 22  1  0
 22 23  1  0
 23 29  1  0
 23 24  1  0
 24 25  1  0
 25 26  1  0
 26 27  2  0
 26 28  2  0
 26 29  1  0
  1 32  1  0
  1 33  1  0
  1 34  1  0
  2 35  1  0
  2 36  1  0
  3 37  1  0
  3 38  1  0
  4 39  1  0
  4 40  1  0
  4 41  1  0
  5 42  1  0
  5 43  1  0
  6 44  1  0
  6 45  1  0
  8 46  1  0
  8 47  1  0
  9 48  1  0
  9 49  1  0
  9 50  1  0
 17 51  1  0
 21 52  1  0
 22 53  1  0
 22 54  1  0
 23 55  1  0
 24 56  1  0
 24 57  1  0
 25 58  1  0
 25 59  1  0
 29 60  1  0
 29 61  1  0
 30 62  1  0
 30 63  1  0
 30 64  1  0
 31 65  1  0
M  CHG  1  31   1
M  END
> <Name>
ZINC14883596

> <reference>
BDB50084673

> <quality>
0.844

> <status>
decoy

$$$$
ZINC08622958
  SciTegic06061311253D

 69 72  0  0  1  0            999 V2000
   -0.4128   -2.9872   -3.6314 C   0  0
    0.3554   -1.6909   -3.6503 C   0  0
    0.4524   -1.0214   -4.7800 N   0  0
    1.1236    0.1277   -4.8334 C   0  0
    1.7251    0.6133   -3.6683 C   0  0
    1.5951   -0.1256   -2.5069 C   0  0
    0.9153   -1.2622   -2.5367 N   0  0
    2.2246    0.3530   -1.2240 C   0  0  1  0  0  0
    2.1327    1.8796   -1.1458 C   0  0
    2.0259    1.8046    1.2722 C   0  0
    2.1147    0.2759    1.2637 C   0  0
    1.4768   -0.2502   -0.0283 C   0  0  1  0  0  0
    0.0166    0.2168   -0.0783 C   0  0
   -0.0146    1.7472   -0.0322 C   0  0  2  0  0  0
   -0.6896    2.2822   -1.2967 C   0  0
   -0.6086    3.7449   -1.3119 N   0  0
   -1.0490    4.4331   -2.3838 C   0  0
   -1.5950    3.8499   -3.2964 O   0  0
   -0.8628    5.9271   -2.4485 C   0  0
   -1.4469    6.4576   -3.7594 C   0  0
   -1.2579    7.9744   -3.8250 C   0  0
   -1.8332    8.4969   -5.1162 C   0  0
   -2.3421    7.7343   -5.9031 O   0  0
    1.2307    0.8793   -6.1062 C   0  0
    2.1035    1.9623   -6.2064 C   0  0
    2.2023    2.6617   -7.3911 C   0  0
    1.4350    2.2899   -8.4853 C   0  0
    0.5621    1.2083   -8.3914 C   0  0
    0.4631    0.5012   -7.2073 C   0  0
   -0.1893    0.8454   -9.4653 O   0  0
   -1.0628   -0.2730   -9.2977 C   0  0
    1.5353    2.9816   -9.6509 O   0  0
    2.4502    4.0790   -9.6773 C   0  0
    1.3588    2.2897    0.0454 N   0  3
   -1.7802    9.8095   -5.3920 O   0  5
   -1.1882   -2.8602   -2.8616 H   0  0
    0.2957   -3.7456   -3.2669 H   0  0
   -0.8390   -3.2536   -4.6099 H   0  0
    2.2872    1.5588   -3.6755 H   0  0
    3.2790    0.0405   -1.2014 H   0  0
    1.6376    2.2628   -2.0503 H   0  0
    3.1460    2.3031   -1.0845 H   0  0
    1.4518    2.1315    2.1517 H   0  0
    3.0391    2.2293    1.3269 H   0  0
    1.5749   -0.1302    2.1318 H   0  0
    3.1699   -0.0320    1.3046 H   0  0
    1.5281   -1.3485   -0.0601 H   0  0
   -0.5305   -0.1881    0.7858 H   0  0
   -0.4502   -0.1326   -1.0111 H   0  0
   -0.5777    2.0607    0.8592 H   0  0
   -1.7455    1.9740   -1.3084 H   0  0
   -0.1798    1.8780   -2.1837 H   0  0
   -0.2151    4.2473   -0.5034 H   0  0
   -1.3803    6.3983   -1.5999 H   0  0
    0.2099    6.1664   -2.4026 H   0  0
   -0.9295    5.9871   -4.6085 H   0  0
   -2.5199    6.2202   -3.8066 H   0  0
   -0.1852    8.2137   -3.7790 H   0  0
   -1.7755    8.4456   -2.9764 H   0  0
    2.7134    2.2589   -5.3403 H   0  0
    2.8909    3.5160   -7.4684 H   0  0
   -0.2199   -0.3580   -7.1340 H   0  0
   -1.7242   -0.0252   -8.4544 H   0  0
   -0.4283   -1.1179   -8.9919 H   0  0
   -1.6360   -0.5053  -10.2074 H   0  0
    3.4345    3.6676   -9.4093 H   0  0
    2.1388    4.7607   -8.8721 H   0  0
    2.4757    4.5883  -10.6520 H   0  0
    1.3103    3.3181    0.0753 H   0  0
  1  2  1  0
  2  7  2  0
  2  3  1  0
  3  4  2  0
  4  5  1  0
  4 24  1  0
  5  6  2  0
  6  7  1  0
  6  8  1  0
  8 12  1  0
  8  9  1  0
  9 34  1  0
 10 11  1  0
 10 34  1  0
 11 12  1  0
 12 13  1  0
 13 14  1  0
 14 15  1  0
 14 34  1  0
 15 16  1  0
 16 17  1  0
 17 18  2  0
 17 19  1  0
 19 20  1  0
 20 21  1  0
 21 22  1  0
 22 23  2  0
 22 35  1  0
 24 29  2  0
 24 25  1  0
 25 26  2  0
 26 27  1  0
 27 28  2  0
 27 32  1  0
 28 29  1  0
 28 30  1  0
 30 31  1  0
 32 33  1  0
  1 36  1  0
  1 37  1  0
  1 38  1  0
  5 39  1  0
  8 40  1  0
  9 41  1  0
  9 42  1  0
 10 43  1  0
 10 44  1  0
 11 45  1  0
 11 46  1  0
 12 47  1  0
 13 48  1  0
 13 49  1  0
 14 50  1  0
 15 51  1  0
 15 52  1  0
 16 53  1  0
 19 54  1  0
 19 55  1  0
 20 56  1  0
 20 57  1  0
 21 58  1  0
 21 59  1  0
 25 60  1  0
 26 61  1  0
 29 62  1  0
 31 63  1  0
 31 64  1  0
 31 65  1  0
 33 66  1  0
 33 67  1  0
 33 68  1  0
 34 69  1  0
M  CHG  2  34   1  35  -1
M  END
> <Name>
ZINC08622958

> <reference>
BDB50084673

> <quality>
0.822

> <status>
decoy

$$$$
ZINC23895247
  SciTegic06061311253D

 61 64  0  0  0  0            999 V2000
   -9.0192   18.2416   -6.4900 C   0  0
   -9.7946   17.1993   -6.0066 C   0  0
   -9.3098   15.9689   -6.0319 N   0  0
   -8.0987   15.7278   -6.5119 C   0  0
   -7.3302   16.7021   -6.9764 N   0  0
   -7.7569   17.9541   -6.9849 C   0  0
   -7.6228   14.4282   -6.5232 N   0  0
   -6.2685   14.3682   -7.0908 C   0  0
   -5.8110   12.9093   -7.1589 C   0  0
   -5.8401   12.3260   -5.8104 N   0  0
   -7.1943   12.3860   -5.2428 C   0  0
   -7.6518   13.8449   -5.1747 C   0  0
   -5.3350   10.9466   -5.8224 C   0  0
   -5.1452   10.4605   -4.3841 C   0  0
   -4.6190    9.0238   -4.3967 C   0  0
   -4.4373    8.5583   -3.0195 N   0  0
   -3.9792    7.3128   -2.7841 C   0  0
   -3.7174    6.5775   -3.7124 O   0  0
   -3.7922    6.8340   -1.3675 C   0  0
   -3.2661    5.3973   -1.3800 C   0  0
   -3.0763    4.9112    0.0582 C   0  0
   -2.5726    3.5356    0.0462 N   0  0
   -1.2330    3.1479    0.0308 C   0  0
   -0.0387    3.8514    0.0232 C   0  0
    1.1613    3.1675    0.0080 C   0  0
    1.1736    1.7835    0.0004 C   0  0
   -0.0126    1.0758    0.0080 C   0  0
   -1.2218    1.7534    0.0174 C   0  0
   -2.5128    1.3403    0.0338 O   0  0
   -3.3190    2.4134    0.0475 C   0  0
   -4.5344    2.3784    0.0600 O   0  0
    2.4639    1.0583   -0.0163 N   0  0
    2.4779   -0.1596   -0.0234 O   0  0
    3.5115    1.6795   -0.0230 O   0  0
   -9.3975   19.2745   -6.4810 H   0  0
  -10.8009   17.3930   -5.6068 H   0  0
   -7.1176   18.7574   -7.3800 H   0  0
   -6.2755   14.7976   -8.1035 H   0  0
   -5.5769   14.9395   -6.4541 H   0  0
   -4.7861   12.8631   -7.5558 H   0  0
   -6.4861   12.3433   -7.8176 H   0  0
   -7.1883   11.9565   -4.2301 H   0  0
   -7.8852   11.8148   -5.8803 H   0  0
   -8.6762   13.8892   -4.7765 H   0  0
   -6.9765   14.4102   -4.5156 H   0  0
   -6.0576   10.2958   -6.3365 H   0  0
   -4.3706   10.9126   -6.3504 H   0  0
   -4.4224   11.1107   -3.8695 H   0  0
   -6.1090   10.4926   -3.8548 H   0  0
   -5.3416    8.3730   -4.9108 H   0  0
   -3.6546    8.9900   -4.9247 H   0  0
   -4.6596    9.1828   -2.2312 H   0  0
   -3.0693    7.4841   -0.8530 H   0  0
   -4.7559    6.8662   -0.8382 H   0  0
   -3.9887    4.7465   -1.8941 H   0  0
   -2.3017    5.3634   -1.9080 H   0  0
   -2.3534    5.5613    0.5727 H   0  0
   -4.0400    4.9434    0.5875 H   0  0
   -0.0465    4.9514    0.0293 H   0  0
    2.1099    3.7244    0.0019 H   0  0
    0.0023   -0.0241    0.0066 H   0  0
  1  6  2  0
  1  2  1  0
  2  3  2  0
  3  4  1  0
  4  5  2  0
  4  7  1  0
  5  6  1  0
  7 12  1  0
  7  8  1  0
  8  9  1  0
  9 10  1  0
 10 11  1  0
 10 13  1  0
 11 12  1  0
 13 14  1  0
 14 15  1  0
 15 16  1  0
 16 17  1  0
 17 18  2  0
 17 19  1  0
 19 20  1  0
 20 21  1  0
 21 22  1  0
 22 30  1  0
 22 23  1  0
 23 28  2  0
 23 24  1  0
 24 25  2  0
 25 26  1  0
 26 27  2  0
 26 32  1  0
 27 28  1  0
 28 29  1  0
 29 30  1  0
 30 31  2  0
 32 33  2  0
 32 34  2  0
  1 35  1  0
  2 36  1  0
  6 37  1  0
  8 38  1  0
  8 39  1  0
  9 40  1  0
  9 41  1  0
 11 42  1  0
 11 43  1  0
 12 44  1  0
 12 45  1  0
 13 46  1  0
 13 47  1  0
 14 48  1  0
 14 49  1  0
 15 50  1  0
 15 51  1  0
 16 52  1  0
 19 53  1  0
 19 54  1  0
 20 55  1  0
 20 56  1  0
 21 57  1  0
 21 58  1  0
 24 59  1  0
 25 60  1  0
 27 61  1  0
M  END
> <Name>
ZINC23895247

> <reference>
BDB50084673

> <quality>
0.820

> <status>
decoy

$$$$
ZINC11156623
  SciTegic06061311253D

 62 64  0  0  1  0            999 V2000
   -3.2690   -6.6898    4.9314 C   0  0
   -4.1349   -6.2491    3.7495 C   0  0
   -3.7631   -4.9029    3.3524 O   0  0
   -4.4360   -4.3625    2.3174 C   0  0
   -5.3097   -4.9989    1.7618 O   0  0
   -4.1127   -3.0010    1.8597 C   0  0
   -3.1633   -2.6488    0.8713 C   0  0
   -3.1840   -1.2909    0.7647 C   0  0
   -4.1201   -0.8008    1.6472 N   0  0
   -4.6831   -1.8254    2.3099 C   0  0
   -5.7543   -1.7118    3.3638 C   0  0
   -2.3524   -0.4857   -0.1434 C   0  0
   -1.5258   -1.0299   -0.8574 O   0  0
   -2.5106    0.9173   -0.1885 C   0  0
   -1.4809    1.7477    0.2426 C   0  0
   -0.3657    1.2087    0.8272 N   0  0
    0.7186    2.0832    1.2811 C   0  0
    1.8388    1.2345    1.8860 C   0  0
    3.5765    2.7780    1.2036 C   0  0
    4.6605    3.7247    1.7257 C   0  0
    5.5892    2.9846    2.5227 O   0  0
    4.9896    2.3228    3.6399 C   0  0
    3.9089    1.3620    3.1372 C   0  0
   -1.6115    3.4927    0.0365 S   0  5
   -3.6831    1.4626   -0.6589 N   0  3
   -4.0078    1.2972   -1.9345 C   0  0
   -5.1754    1.8296   -2.4414 C   0  0
   -6.0157    2.5456   -1.6019 C   0  0
   -5.6475    2.7021   -0.2683 C   0  0
   -4.4635    2.1361    0.1751 C   0  0
   -6.4422    3.3960    0.5885 O   0  5
   -2.2918   -3.5962    0.0877 C   0  0
    2.9166    2.1312    2.3569 N   0  0
   -3.4236   -6.0031    5.7767 H   0  0
   -2.2093   -6.6747    4.6366 H   0  0
   -3.5502   -7.7097    5.2327 H   0  0
   -3.9795   -6.9361    2.9046 H   0  0
   -5.1946   -6.2642    4.0442 H   0  0
   -4.3523    0.1940    1.7788 H   0  0
   -5.3101   -2.2471    4.2159 H   0  0
   -6.5445   -2.3707    2.9746 H   0  0
   -6.0979   -0.6949    3.6043 H   0  0
   -2.3783    1.4958    0.7377 H   0  0
    1.1120    2.6535    0.4267 H   0  0
    0.3356    2.7795    2.0417 H   0  0
    1.4450    0.6556    2.7344 H   0  0
    2.2372    0.5504    1.1223 H   0  0
    4.0341    2.0097    0.5630 H   0  0
    2.8340    3.3498    0.6277 H   0  0
    5.1890    4.1819    0.8762 H   0  0
    4.1976    4.5122    2.3386 H   0  0
    5.7577    1.7566    4.1871 H   0  0
    4.5348    3.0681    4.3089 H   0  0
    4.3672    0.5949    2.4957 H   0  0
    3.4123    0.8834    3.9941 H   0  0
   -3.3379    0.7286   -2.5962 H   0  0
   -5.4371    1.6877   -3.5003 H   0  0
   -6.9523    2.9802   -1.9813 H   0  0
   -4.1679    2.2464    1.2289 H   0  0
   -3.0306   -4.2855   -0.3472 H   0  0
   -1.7920   -4.1655    0.8852 H   0  0
   -1.6050   -3.1490   -0.6460 H   0  0
  1  2  1  0
  2  3  1  0
  3  4  1  0
  4  5  2  0
  4  6  1  0
  6 10  2  0
  6  7  1  0
  7  8  2  0
  7 32  1  0
  8  9  1  0
  8 12  1  0
  9 10  1  0
 10 11  1  0
 12 13  2  0
 12 14  1  0
 14 25  1  0
 14 15  1  0
 15 24  1  0
 15 16  2  0
 16 17  1  0
 17 18  1  0
 18 33  1  0
 19 20  1  0
 19 33  1  0
 20 21  1  0
 21 22  1  0
 22 23  1  0
 23 33  1  0
 25 30  2  0
 25 26  1  0
 26 27  2  0
 27 28  1  0
 28 29  2  0
 29 30  1  0
 29 31  1  0
  1 34  1  0
  1 35  1  0
  1 36  1  0
  2 37  1  0
  2 38  1  0
  9 39  1  0
 11 40  1  0
 11 41  1  0
 11 42  1  0
 14 43  1  0
 17 44  1  0
 17 45  1  0
 18 46  1  0
 18 47  1  0
 19 48  1  0
 19 49  1  0
 20 50  1  0
 20 51  1  0
 22 52  1  0
 22 53  1  0
 23 54  1  0
 23 55  1  0
 26 56  1  0
 27 57  1  0
 28 58  1  0
 30 59  1  0
 32 60  1  0
 32 61  1  0
 32 62  1  0
M  CHG  3  24  -1  25   1  31  -1
M  END
> <Name>
ZINC11156623

> <reference>
BDB50084673

> <quality>
0.813

> <status>
decoy

$$$$
ZINC14885721
  SciTegic06061311253D

 65 68  0  0  1  0            999 V2000
   -0.0127    1.0858    0.0080 C   0  0
   -0.6816    1.5467    1.1837 O   0  0
   -1.9758    1.1627    1.3483 C   0  0
   -2.5897    0.3644    0.3952 C   0  0
   -3.9037   -0.0303    0.5640 C   0  0
   -4.6142    0.3774    1.6774 C   0  0
   -4.0092    1.1801    2.6326 C   0  0
   -2.6866    1.5748    2.4692 C   0  0
   -2.0891    2.3623    3.4047 O   0  0
   -2.1911    3.7761    3.2235 C   0  0
   -4.7091    1.5811    3.7275 O   0  0
   -6.0637    1.1375    3.8298 C   0  0
   -4.5654   -0.9023   -0.4718 C   0  0
   -5.2012   -0.0561   -1.4905 N   0  3
   -6.2863    0.7377   -0.9105 C   0  0
   -7.6080   -0.0271   -1.0336 C   0  0
   -8.2391    0.3028   -2.3617 C   0  0
   -9.4818    0.6047   -2.5993 N   0  0
   -9.6462    0.7872   -3.8638 N   0  0
   -8.5094    0.6149   -4.4858 C   0  0
   -7.5846    0.3160   -3.5489 N   0  0
   -6.1573    0.0640   -3.7475 C   0  0
   -5.6493   -0.8575   -2.6346 C   0  0
   -8.2751    0.7289   -5.9701 C   0  0
   -8.4926   -0.6356   -6.6271 C   0  0
   -8.2649   -0.5248   -8.0700 N   0  0
   -8.4002   -1.6091   -8.8589 C   0  0
   -8.7113   -2.6791   -8.3731 O   0  0
   -8.1704   -1.4973  -10.3150 C   0  0
   -8.3022   -2.6175  -11.1447 C   0  0
   -8.0817   -2.4583  -12.5013 C   0  0
   -7.7305   -1.2120  -12.9885 C   0  0
   -7.6083   -0.1751  -12.1820 N   0  0
   -7.8130   -0.2749  -10.8849 C   0  0
   -0.6108    1.4370   -0.8458 H   0  0
   -0.0692   -0.0125    0.0305 H   0  0
    1.0279    1.4367   -0.0547 H   0  0
   -2.0304    0.0447   -0.4964 H   0  0
   -5.6610    0.0647    1.8059 H   0  0
   -3.2661    4.0059    3.1832 H   0  0
   -1.7624    3.9927    2.2339 H   0  0
   -1.6848    4.3445    4.0176 H   0  0
   -6.0325    0.0384    3.7969 H   0  0
   -6.5734    1.4880    2.9202 H   0  0
   -6.5630    1.5015    4.7398 H   0  0
   -5.3287   -1.5310    0.0100 H   0  0
   -3.8095   -1.5437   -0.9484 H   0  0
   -4.4985    0.6082   -1.8451 H   0  0
   -6.0725    0.9297    0.1513 H   0  0
   -6.3671    1.6954   -1.4455 H   0  0
   -8.2852    0.2726   -0.2203 H   0  0
   -7.4145   -1.1085   -0.9769 H   0  0
   -6.0016   -0.4191   -4.7234 H   0  0
   -5.6069    1.0159   -3.7150 H   0  0
   -4.8085   -1.4576   -3.0126 H   0  0
   -6.4612   -1.5283   -2.3170 H   0  0
   -8.9795    1.4576   -6.3977 H   0  0
   -7.2438    1.0638   -6.1550 H   0  0
   -7.7882   -1.3647   -6.2002 H   0  0
   -9.5239   -0.9717   -6.4441 H   0  0
   -8.0014    0.3819   -8.4816 H   0  0
   -8.5740   -3.5988  -10.7287 H   0  0
   -8.1846   -3.3137  -13.1853 H   0  0
   -7.5502   -1.0835  -14.0660 H   0  0
   -7.7013    0.6130  -10.2453 H   0  0
  1  2  1  0
  2  3  1  0
  3  8  2  0
  3  4  1  0
  4  5  2  0
  5  6  1  0
  5 13  1  0
  6  7  2  0
  7  8  1  0
  7 11  1  0
  8  9  1  0
  9 10  1  0
 11 12  1  0
 13 14  1  0
 14 23  1  0
 14 15  1  0
 15 16  1  0
 16 17  1  0
 17 21  1  0
 17 18  2  0
 18 19  1  0
 19 20  2  0
 20 21  1  0
 20 24  1  0
 21 22  1  0
 22 23  1  0
 24 25  1  0
 25 26  1  0
 26 27  1  0
 27 28  2  0
 27 29  1  0
 29 34  2  0
 29 30  1  0
 30 31  2  0
 31 32  1  0
 32 33  2  0
 33 34  1  0
  1 35  1  0
  1 36  1  0
  1 37  1  0
  4 38  1  0
  6 39  1  0
 10 40  1  0
 10 41  1  0
 10 42  1  0
 12 43  1  0
 12 44  1  0
 12 45  1  0
 13 46  1  0
 13 47  1  0
 14 48  1  0
 15 49  1  0
 15 50  1  0
 16 51  1  0
 16 52  1  0
 22 53  1  0
 22 54  1  0
 23 55  1  0
 23 56  1  0
 24 57  1  0
 24 58  1  0
 25 59  1  0
 25 60  1  0
 26 61  1  0
 30 62  1  0
 31 63  1  0
 32 64  1  0
 34 65  1  0
M  CHG  1  14   1
M  END
> <Name>
ZINC14885721

> <reference>
BDB50084673

> <quality>
0.812

> <status>
decoy

$$$$
ZINC31667080
  SciTegic06061311253D

 58 59  0  0  0  0            999 V2000
   -5.8905   -1.3940    8.7928 C   0  0
   -4.7561   -1.2591    7.7750 C   0  0
   -4.5093   -2.5578    7.1437 N   0  0
   -3.6249   -3.5304    7.7903 C   0  0
   -2.1736   -3.2333    7.4074 C   0  0
   -5.2302   -2.9266    5.6992 S   0  0
   -6.3930   -2.1151    5.6067 O   0  0
   -5.2827   -4.3445    5.6217 O   0  0
   -4.1405   -2.3924    4.4218 C   0  0
   -3.5572   -3.3190    3.5795 C   0  0
   -2.6989   -2.8978    2.5727 C   0  0
   -2.4231   -1.5456    2.4171 C   0  0
   -3.0111   -0.6203    3.2566 C   0  0
   -3.8689   -1.0419    4.2620 C   0  0
   -4.4436   -0.1303    5.0917 O   0  0
   -4.1195    1.2437    4.8700 C   0  0
   -4.8546    2.1125    5.8926 C   0  0
   -2.1077   -3.8357    1.7190 N   0  5
   -3.0111   -4.5667    0.5392 S   0  0
   -4.1790   -5.0685    1.1743 O   0  0
   -2.1241   -5.4010   -0.1932 O   0  0
   -3.5431   -3.3030   -0.5675 C   0  0
   -4.7661   -2.6268   -0.5182 C   0  0
   -4.7747   -1.7284   -1.5640 C   0  0
   -3.5750   -1.8527   -2.2273 N   0  0
   -2.8377   -2.8102   -1.6136 C   0  0
   -3.1633   -1.0786   -3.4010 C   0  0
   -5.8616   -0.8040   -1.9039 C   0  0
   -5.7106    0.0115   -2.7945 O   0  0
   -7.0255   -0.8541   -1.2263 N   0  0
   -8.1473   -0.0042   -1.6334 C   0  0
   -5.6085   -2.1274    9.5626 H   0  0
   -6.8042   -1.7323    8.2822 H   0  0
   -6.0763   -0.4191    9.2672 H   0  0
   -5.0391   -0.5258    7.0055 H   0  0
   -3.8423   -0.9208    8.2855 H   0  0
   -3.7374   -3.4593    8.8822 H   0  0
   -3.8901   -4.5454    7.4596 H   0  0
   -1.9062   -2.2189    7.7384 H   0  0
   -2.0595   -3.3041    6.3156 H   0  0
   -1.5089   -3.9632    7.8926 H   0  0
   -3.7727   -4.3902    3.7064 H   0  0
   -1.7364   -1.2118    1.6253 H   0  0
   -2.7993    0.4514    3.1281 H   0  0
   -4.4264    1.5348    3.8546 H   0  0
   -3.0345    1.3871    4.9804 H   0  0
   -4.5480    1.8235    6.9087 H   0  0
   -5.9399    1.9703    5.7834 H   0  0
   -4.6055    3.1703    5.7225 H   0  0
   -5.5698   -2.7823    0.2165 H   0  0
   -1.8309   -3.1342   -1.9157 H   0  0
   -3.2812   -0.0403   -3.0574 H   0  0
   -3.9876   -1.2564   -4.1073 H   0  0
   -2.1679   -1.3016   -3.8126 H   0  0
   -7.1264   -1.4899   -0.4222 H   0  0
   -8.3291   -0.2556   -2.6887 H   0  0
   -7.7537    1.0226   -1.6059 H   0  0
   -9.0468   -0.1257   -1.0120 H   0  0
  1  2  1  0
  2  3  1  0
  3  4  1  0
  3  6  1  0
  4  5  1  0
  6  7  2  0
  6  8  2  0
  6  9  1  0
  9 14  2  0
  9 10  1  0
 10 11  2  0
 11 12  1  0
 11 18  1  0
 12 13  2  0
 13 14  1  0
 14 15  1  0
 15 16  1  0
 16 17  1  0
 18 19  1  0
 19 20  2  0
 19 21  2  0
 19 22  1  0
 22 26  2  0
 22 23  1  0
 23 24  2  0
 24 25  1  0
 24 28  1  0
 25 26  1  0
 25 27  1  0
 28 29  2  0
 28 30  1  0
 30 31  1  0
  1 32  1  0
  1 33  1  0
  1 34  1  0
  2 35  1  0
  2 36  1  0
  4 37  1  0
  4 38  1  0
  5 39  1  0
  5 40  1  0
  5 41  1  0
 10 42  1  0
 12 43  1  0
 13 44  1  0
 16 45  1  0
 16 46  1  0
 17 47  1  0
 17 48  1  0
 17 49  1  0
 23 50  1  0
 26 51  1  0
 27 52  1  0
 27 53  1  0
 27 54  1  0
 30 55  1  0
 31 56  1  0
 31 57  1  0
 31 58  1  0
M  CHG  1  18  -1
M  END
> <Name>
ZINC31667080

> <reference>
BDB50084673

> <quality>
0.798

> <status>
decoy

$$$$
ZINC12780993
  SciTegic06061311253D

 60 63  0  0  1  0            999 V2000
   10.1807    2.7399   10.2445 C   0  0
    9.9233    1.9961    8.9325 C   0  0  1  0  0  0
    8.4162    1.8300    8.7277 C   0  0
    8.1601    1.0752    7.4208 C   0  0
    8.7659    1.8503    6.2558 C   0  0  1  0  0  0
   10.2645    2.0454    6.4579 C   0  0
   10.5119    2.7964    7.7687 C   0  0
    8.4993    1.1342    4.9516 C   0  0
    8.8666    0.0227    4.6361 O   0  0
    7.7657    1.9922    4.2128 N   0  0
    7.5424    3.1390    4.8663 C   0  0
    6.9096    4.0681    4.4042 O   0  0
    8.0947    3.1462    6.0946 N   0  5
    7.3005    1.7193    2.9198 N   0  0
    6.0008    1.4241    2.7195 C   0  0
    5.2340    1.3947    3.6587 O   0  0
    5.5005    1.1305    1.3287 C   0  0
    3.9842   -0.5815    2.1239 C   0  0
    4.5788   -1.7107    1.2800 C   0  0
    5.9907   -1.5243    1.1617 O   0  0
    6.6470   -2.5306    0.3881 C   0  0
    3.5194    0.5791    0.0504 C   0  0
    2.0318    0.3657    0.1625 C   0  0
    1.1219    1.2979    0.1993 N   0  0
   -0.0428    0.7602    0.2972 N   0  0
    0.0854   -0.5485    0.3266 C   0  0
    1.4038   -0.8216    0.2417 O   0  0
   -1.0043   -1.5302    0.4330 C   0  0
   -2.3664   -1.3135    0.5287 C   0  0
   -3.1984   -2.4056    0.6141 C   0  0
   -2.6601   -3.6530    0.6136 C   0  0
   -0.9130   -3.3126    0.4801 S   0  0
    4.0863    0.7083    1.4093 N   0  0
    9.7054    3.7311   10.2047 H   0  0
   11.2641    2.8591   10.3933 H   0  0
    9.7578    2.1651   11.0816 H   0  0
   10.3988    1.0050    8.9731 H   0  0
    7.9922    1.2611    9.5683 H   0  0
    7.9404    2.8205    8.6776 H   0  0
    8.6220    0.0784    7.4766 H   0  0
    7.0765    0.9680    7.2646 H   0  0
   10.6757    2.6273    5.6199 H   0  0
   10.7596    1.0640    6.4995 H   0  0
   11.5942    2.9230    7.9194 H   0  0
   10.0298    3.7840    7.7216 H   0  0
    7.9518    1.7443    2.1222 H   0  0
    5.5791    2.0367    0.7101 H   0  0
    6.1003    0.3231    0.8833 H   0  0
    2.9260   -0.7995    2.3306 H   0  0
    4.5285   -0.5124    3.0773 H   0  0
    4.3764   -2.6769    1.7653 H   0  0
    4.1232   -1.7007    0.2788 H   0  0
    6.1900   -2.5302   -0.6125 H   0  0
    6.4419   -3.5009    0.8639 H   0  0
    7.7299   -2.3484    0.3232 H   0  0
    3.9776   -0.2814   -0.4590 H   0  0
    3.7187    1.4983   -0.5200 H   0  0
   -2.7750   -0.2922    0.5364 H   0  0
   -4.2879   -2.2704    0.6821 H   0  0
   -3.1708   -4.6251    0.6788 H   0  0
  1  2  1  0
  2  7  1  0
  2  3  1  0
  3  4  1  0
  4  5  1  0
  5 13  1  0
  5  6  1  0
  5  8  1  0
  6  7  1  0
  8  9  2  0
  8 10  1  0
 10 11  1  0
 10 14  1  0
 11 12  2  0
 11 13  1  0
 14 15  1  0
 15 16  2  0
 15 17  1  0
 17 33  1  0
 18 19  1  0
 18 33  1  0
 19 20  1  0
 20 21  1  0
 22 23  1  0
 22 33  1  0
 23 27  1  0
 23 24  2  0
 24 25  1  0
 25 26  2  0
 26 27  1  0
 26 28  1  0
 28 32  1  0
 28 29  2  0
 29 30  1  0
 30 31  2  0
 31 32  1  0
  1 34  1  0
  1 35  1  0
  1 36  1  0
  2 37  1  0
  3 38  1  0
  3 39  1  0
  4 40  1  0
  4 41  1  0
  6 42  1  0
  6 43  1  0
  7 44  1  0
  7 45  1  0
 14 46  1  0
 17 47  1  0
 17 48  1  0
 18 49  1  0
 18 50  1  0
 19 51  1  0
 19 52  1  0
 21 53  1  0
 21 54  1  0
 21 55  1  0
 22 56  1  0
 22 57  1  0
 29 58  1  0
 30 59  1  0
 31 60  1  0
M  CHG  1  13  -1
M  END
> <Name>
ZINC12780993

> <reference>
BDB50084673

> <quality>
0.796

> <status>
decoy

$$$$
ZINC23004010
  SciTegic06061311253D

 66 68  0  0  1  0            999 V2000
   -3.9966    3.1322    4.4072 C   0  0
   -2.8041    2.1975    4.6195 C   0  0
   -1.8853    2.3436    3.5349 O   0  0
   -0.7615    1.5774    3.5698 C   0  0
   -0.5529    0.7010    4.6225 C   0  0
    0.5909   -0.0734    4.6624 C   0  0
    1.5304    0.0203    3.6444 C   0  0
    1.3218    0.8931    2.5853 C   0  0
    0.1757    1.6697    2.5453 C   0  0
   -0.0308    2.5254    1.5088 O   0  0
    0.9759    2.5723    0.4957 C   0  0
    0.5715    3.5837   -0.5788 C   0  0
    2.6893   -0.7659    3.6862 N   0  0
    3.2736   -1.0425    4.8688 C   0  0
    2.7511   -0.6822    5.9025 O   0  0
    4.5761   -1.7995    4.9070 C   0  0
    5.0016   -1.9720    6.3024 N   0  0
    5.3309   -0.6786    6.9161 C   0  0
    6.1341   -2.9028    6.3962 C   0  0
    6.3881   -3.2507    7.8643 C   0  0
    7.5677   -4.2201    7.9621 C   0  0
    7.8109   -4.5532    9.3678 N   0  0
    7.1820   -5.6126    9.9181 C   0  0
    6.4176   -6.2888    9.2534 O   0  0
    7.4206   -5.9282   11.2731 C   0  0
    8.2977   -5.1399   12.0074 C   0  0
    8.3447   -5.6452   13.2426 N   0  0
    7.5598   -6.6892   13.3248 C   0  0
    6.9658   -6.9059   12.1351 N   0  0
    6.0168   -7.9756   11.8168 C   0  0
    8.9130   -4.0660   11.3847 N   0  0
    8.6614   -3.8022   10.0885 C   0  0
    9.2140   -2.8580    9.5578 O   0  0
    9.8426   -3.2192   12.1363 C   0  0
   -4.5007    2.8765    3.4635 H   0  0
   -3.6444    4.1734    4.3636 H   0  0
   -4.7043    3.0202    5.2418 H   0  0
   -2.3004    2.4541    5.5631 H   0  0
   -3.1562    1.1563    4.6631 H   0  0
   -1.2985    0.6216    5.4273 H   0  0
    0.7572   -0.7648    5.5016 H   0  0
    2.0660    0.9679    1.7787 H   0  0
    1.9332    2.8771    0.9437 H   0  0
    1.0850    1.5774    0.0392 H   0  0
    0.4631    4.5795   -0.1242 H   0  0
   -0.3857    3.2801   -1.0278 H   0  0
    1.3461    3.6203   -1.3590 H   0  0
    3.0947   -1.1325    2.8132 H   0  0
    4.4405   -2.7866    4.4409 H   0  0
    5.3448   -1.2368    4.3570 H   0  0
    4.4419   -0.0317    6.8805 H   0  0
    6.1416   -0.2082    6.3404 H   0  0
    5.6475   -0.8231    7.9596 H   0  0
    5.9014   -3.8212    5.8373 H   0  0
    7.0329   -2.4325    5.9708 H   0  0
    6.6213   -2.3327    8.4238 H   0  0
    5.4906   -3.7223    8.2911 H   0  0
    7.3350   -5.1385    7.4032 H   0  0
    8.4665   -3.7498    7.5367 H   0  0
    7.4080   -7.2977   14.2285 H   0  0
    6.4870   -8.4529   10.9444 H   0  0
    5.1575   -7.4149   11.4202 H   0  0
    5.7621   -8.6737   12.6279 H   0  0
   10.6091   -3.9081   12.5209 H   0  0
    9.2658   -2.8599   13.0013 H   0  0
   10.2743   -2.3962   11.5478 H   0  0
  1  2  1  0
  2  3  1  0
  3  4  1  0
  4  9  2  0
  4  5  1  0
  5  6  2  0
  6  7  1  0
  7  8  2  0
  7 13  1  0
  8  9  1  0
  9 10  1  0
 10 11  1  0
 11 12  1  0
 13 14  1  0
 14 15  2  0
 14 16  1  0
 16 17  1  0
 17 18  1  0
 17 19  1  0
 19 20  1  0
 20 21  1  0
 21 22  1  0
 22 32  1  0
 22 23  1  0
 23 24  2  0
 23 25  1  0
 25 29  1  0
 25 26  2  0
 26 27  1  0
 26 31  1  0
 27 28  2  0
 28 29  1  0
 29 30  1  0
 31 32  1  0
 31 34  1  0
 32 33  2  0
  1 35  1  0
  1 36  1  0
  1 37  1  0
  2 38  1  0
  2 39  1  0
  5 40  1  0
  6 41  1  0
  8 42  1  0
 11 43  1  0
 11 44  1  0
 12 45  1  0
 12 46  1  0
 12 47  1  0
 13 48  1  0
 16 49  1  0
 16 50  1  0
 18 51  1  0
 18 52  1  0
 18 53  1  0
 19 54  1  0
 19 55  1  0
 20 56  1  0
 20 57  1  0
 21 58  1  0
 21 59  1  0
 28 60  1  0
 30 61  1  0
 30 62  1  0
 30 63  1  0
 34 64  1  0
 34 65  1  0
 34 66  1  0
M  END
> <Name>
ZINC23004010

> <reference>
BDB50084673

> <quality>
0.790

> <status>
decoy

$$$$
ZINC30031505
  SciTegic06061311253D

 56 59  0  0  0  0            999 V2000
    9.4932  -10.0157  -13.2837 C   0  0
    8.0231  -10.4144  -13.1396 C   0  0
    7.5219   -9.9597  -11.8549 O   0  0
    6.2323  -10.2331  -11.5690 C   0  0
    5.5458  -10.8354  -12.3723 O   0  0
    5.6588   -9.8048  -10.2915 C   0  0
    4.3890   -9.9850   -9.8237 C   0  0
    4.0673   -9.4832   -8.5588 C   0  0
    5.1071   -8.8275   -7.8778 C   0  0
    6.4453   -8.9178   -8.9590 S   0  0
    4.9100   -8.3008   -6.6428 N   0  0
    3.7073   -8.3962   -6.0399 C   0  0
    2.6966   -8.9936   -6.6060 N   0  0
    2.7775   -9.5442   -7.8268 C   0  0
    1.8076  -10.0910   -8.3253 O   0  0
    3.5284   -7.7994   -4.6677 C   0  0
    2.9845   -6.0759   -4.8241 S   0  0
    2.8178   -5.5109   -3.1084 C   0  0
    2.3583   -4.0517   -3.0944 C   0  0
    2.2198   -3.5823   -1.6691 C   0  0
    2.4646   -4.3403   -0.7545 O   0  0
    1.8240   -2.3201   -1.4106 N   0  0
    1.6894   -1.8639   -0.0250 C   0  0
    1.2368   -0.4265   -0.0112 C   0  0
    0.0021   -0.0041    0.0020 N   0  0
   -0.0154    1.2815    0.0091 N   0  0
    1.2093    1.7373   -0.0002 C   0  0
    2.0367    0.6685   -0.0110 N   0  0
    3.4436    1.0878   -0.0164 C   0  0
    3.4319    2.5717   -0.4440 C   0  0
    2.0181    3.0165   -0.0049 C   0  0
    3.3580  -10.7085  -10.6511 C   0  0
   10.0805  -10.4788  -12.4771 H   0  0
    9.5851   -8.9213  -13.2215 H   0  0
    9.8735  -10.3599  -14.2568 H   0  0
    7.4365   -9.9507  -13.9464 H   0  0
    7.9311  -11.5088  -13.2018 H   0  0
    5.6858   -7.8239   -6.1615 H   0  0
    2.7709   -8.3735   -4.1139 H   0  0
    4.4842   -7.8335   -4.1243 H   0  0
    2.0754   -6.1336   -2.5877 H   0  0
    3.7887   -5.5937   -2.5980 H   0  0
    1.3869   -3.9671   -3.6035 H   0  0
    3.1005   -3.4284   -3.6147 H   0  0
    1.6162   -1.6763   -2.1873 H   0  0
    0.9470   -2.4865    0.4957 H   0  0
    2.6603   -1.9467    0.4855 H   0  0
    4.0125    0.4927   -0.7459 H   0  0
    3.8692    0.9926    0.9934 H   0  0
    4.1987    3.1355    0.1075 H   0  0
    3.5380    2.6578   -1.5355 H   0  0
    1.6017    3.7256   -0.7355 H   0  0
    2.0553    3.4464    1.0069 H   0  0
    3.8088  -11.6884  -10.8669 H   0  0
    3.3208  -10.1541  -11.6005 H   0  0
    2.3725  -10.7916  -10.1695 H   0  0
  1  2  1  0
  2  3  1  0
  3  4  1  0
  4  5  2  0
  4  6  1  0
  6 10  1  0
  6  7  2  0
  7  8  1  0
  7 32  1  0
  8 14  1  0
  8  9  2  0
  9 10  1  0
  9 11  1  0
 11 12  1  0
 12 13  2  0
 12 16  1  0
 13 14  1  0
 14 15  2  0
 16 17  1  0
 17 18  1  0
 18 19  1  0
 19 20  1  0
 20 21  2  0
 20 22  1  0
 22 23  1  0
 23 24  1  0
 24 28  1  0
 24 25  2  0
 25 26  1  0
 26 27  2  0
 27 31  1  0
 27 28  1  0
 28 29  1  0
 29 30  1  0
 30 31  1  0
  1 33  1  0
  1 34  1  0
  1 35  1  0
  2 36  1  0
  2 37  1  0
 11 38  1  0
 16 39  1  0
 16 40  1  0
 18 41  1  0
 18 42  1  0
 19 43  1  0
 19 44  1  0
 22 45  1  0
 23 46  1  0
 23 47  1  0
 29 48  1  0
 29 49  1  0
 30 50  1  0
 30 51  1  0
 31 52  1  0
 31 53  1  0
 32 54  1  0
 32 55  1  0
 32 56  1  0
M  END
> <Name>
ZINC30031505

> <reference>
BDB50084673

> <quality>
0.787

> <status>
decoy

$$$$
ZINC29964499
  SciTegic06061311253D

 59 61  0  0  0  0            999 V2000
   -2.6207    5.1945    2.7528 C   0  0
   -2.9058    4.6888    1.4077 N   0  0
   -4.0662    3.8236    1.1811 C   0  0
   -1.9165    5.0952    0.1434 S   0  0
   -1.2754    6.3110    0.5039 O   0  0
   -2.6943    4.9655   -1.0388 O   0  0
   -0.6552    3.8682    0.0536 C   0  0
    0.5198    4.0313    0.7638 C   0  0
    1.5113    3.0714    0.6891 C   0  0
    1.3240    1.9429   -0.0874 C   0  0
    0.1472    1.7773   -0.7932 C   0  0
   -0.8423    2.7403   -0.7230 C   0  0
   -0.0534    0.5691   -1.6245 N   0  0
   -1.1343    0.3613   -2.1459 O   0  0
    0.8625   -0.2172   -1.7871 O   0  0
    2.5851    0.7157   -0.1768 S   0  0
    3.6824    1.2049    0.5819 O   0  0
    1.9604   -0.5297    0.1029 O   0  0
    3.0915    0.6478   -1.7520 N   0  0
    3.7549    1.8046   -2.3586 C   0  0
    4.4274    1.3834   -3.6397 C   0  0
    5.7370    0.9413   -3.6199 C   0  0
    6.3525    0.5507   -4.7945 C   0  0
    5.6613    0.6109   -5.9901 C   0  0
    4.3534    1.0579   -6.0106 C   0  0
    3.7365    1.4444   -4.8355 C   0  0
    6.3334    0.1886   -7.2711 C   0  0
    6.9981    1.3482   -7.8807 N   0  3
    7.8951    2.0205   -6.9062 C   0  0
    8.8621    2.8249   -7.8110 C   0  0
    9.0798    1.8772   -9.0129 C   0  0
    7.8639    0.9322   -9.0053 C   0  0
   -2.5410    4.2951    3.3811 H   0  0
   -3.5388    5.7181    3.0576 H   0  0
   -1.7285    5.8347    2.8167 H   0  0
   -4.9258    4.4027    1.5495 H   0  0
   -3.9280    2.9797    1.8730 H   0  0
   -4.1921    3.4982    0.1379 H   0  0
    0.6655    4.9251    1.3883 H   0  0
    2.4495    3.2053    1.2475 H   0  0
   -1.7786    2.6088   -1.2853 H   0  0
    2.9401   -0.2077   -2.3052 H   0  0
    4.5087    2.2027   -1.6634 H   0  0
    3.0088    2.5832   -2.5756 H   0  0
    6.2893    0.9003   -2.6695 H   0  0
    7.3922    0.1920   -4.7777 H   0  0
    3.8035    1.1060   -6.9621 H   0  0
    2.6959    1.8005   -4.8519 H   0  0
    5.5807   -0.2096   -7.9674 H   0  0
    7.0802   -0.5894   -7.0543 H   0  0
    6.2471    1.9781   -8.1973 H   0  0
    7.3191    2.7042   -6.2653 H   0  0
    8.4548    1.2745   -6.3229 H   0  0
    9.8142    3.0026   -7.2895 H   0  0
    8.3846    3.7582   -8.1440 H   0  0
   10.0057    1.2995   -8.8753 H   0  0
    9.1014    2.4548   -9.9488 H   0  0
    7.3153    1.0255   -9.9541 H   0  0
    8.1999   -0.1042   -8.8539 H   0  0
  1  2  1  0
  2  3  1  0
  2  4  1  0
  4  5  2  0
  4  6  2  0
  4  7  1  0
  7 12  2  0
  7  8  1  0
  8  9  2  0
  9 10  1  0
 10 11  2  0
 10 16  1  0
 11 12  1  0
 11 13  1  0
 13 14  2  0
 13 15  2  0
 16 17  2  0
 16 18  2  0
 16 19  1  0
 19 20  1  0
 20 21  1  0
 21 26  2  0
 21 22  1  0
 22 23  2  0
 23 24  1  0
 24 25  2  0
 24 27  1  0
 25 26  1  0
 27 28  1  0
 28 32  1  0
 28 29  1  0
 29 30  1  0
 30 31  1  0
 31 32  1  0
  1 33  1  0
  1 34  1  0
  1 35  1  0
  3 36  1  0
  3 37  1  0
  3 38  1  0
  8 39  1  0
  9 40  1  0
 12 41  1  0
 19 42  1  0
 20 43  1  0
 20 44  1  0
 22 45  1  0
 23 46  1  0
 25 47  1  0
 26 48  1  0
 27 49  1  0
 27 50  1  0
 28 51  1  0
 29 52  1  0
 29 53  1  0
 30 54  1  0
 30 55  1  0
 31 56  1  0
 31 57  1  0
 32 58  1  0
 32 59  1  0
M  CHG  1  28   1
M  END
> <Name>
ZINC29964499

> <reference>
BDB50084673

> <quality>
0.767

> <status>
decoy

$$$$
ZINC16892992
  SciTegic06061311253D

 55 56  0  0  1  0            999 V2000
    1.9986   -3.9510    1.7254 C   0  0
    0.6732   -4.4458    1.1429 C   0  0
    0.8080   -4.5987   -0.3734 C   0  0  2  0  0  0
    1.0209   -3.2439   -0.9980 C   0  0
    0.0756   -2.6226   -1.4357 O   0  0
    2.2616   -2.7225   -1.0702 N   0  0
    2.4581   -1.4722   -1.6465 C   0  0
    1.5772   -0.6411   -2.1769 N   0  0
    1.9199    0.4711   -2.6656 N   0  0
    3.1837    0.8454   -2.6632 C   0  0
    3.9302   -0.5727   -1.8681 S   0  0
    3.8194    2.1091   -3.1827 C   0  0
    3.8461    3.0905   -2.1443 O   0  0
    4.4325    4.3339   -2.5347 C   0  0
   -0.7051   -5.3422   -1.0430 S   0  0
   -1.8189   -4.5946   -0.5741 O   0  0
   -0.5351   -5.5251   -2.4419 O   0  0
   -0.7346   -6.9737   -0.2505 C   0  0
   -1.9882   -7.7059   -0.6547 C   0  0
   -2.7835   -7.1790   -1.4036 O   0  0
   -2.2256   -8.9463   -0.1839 N   0  0
   -3.3402   -9.6653   -0.6349 C   0  0
   -4.5291   -9.0027   -0.9094 C   0  0
   -5.6280   -9.7097   -1.3590 C   0  0
   -5.5490  -11.0828   -1.5267 C   0  0
   -4.3605  -11.7504   -1.2473 C   0  0
   -3.2576  -11.0409   -0.8018 C   0  0
   -4.2818  -13.0980   -1.4120 O   0  0
   -3.0305  -13.7170   -1.1066 C   0  0
   -6.6333  -11.7782   -1.9649 O   0  0
   -7.8201  -11.0286   -2.2322 C   0  0
    2.2552   -2.9781    1.2809 H   0  0
    2.7933   -4.6774    1.5001 H   0  0
    1.9024   -3.8408    2.8156 H   0  0
    0.4175   -5.4188    1.5877 H   0  0
   -0.1215   -3.7194    1.3682 H   0  0
    1.6671   -5.2467   -0.6016 H   0  0
    3.0643   -3.2501   -0.6985 H   0  0
    4.8473    1.8947   -3.5104 H   0  0
    3.2357    2.4918   -4.0329 H   0  0
    3.8571    4.7178   -3.3900 H   0  0
    5.4588    4.1254   -2.8712 H   0  0
    4.4324    5.0584   -1.7070 H   0  0
   -0.7183   -6.8519    0.8426 H   0  0
    0.1457   -7.5518   -0.5683 H   0  0
   -1.5876   -9.3656    0.5075 H   0  0
   -4.5963   -7.9138   -0.7688 H   0  0
   -6.5665   -9.1818   -1.5840 H   0  0
   -2.3172  -11.5669   -0.5805 H   0  0
   -2.8065  -13.4618   -0.0603 H   0  0
   -2.2791  -13.2255   -1.7421 H   0  0
   -3.0446  -14.8056   -1.2640 H   0  0
   -7.5448  -10.2697   -2.9793 H   0  0
   -8.0728  -10.5060   -1.2978 H   0  0
   -8.6515  -11.6584   -2.5818 H   0  0
  1  2  1  0
  2  3  1  0
  3  4  1  0
  3 15  1  0
  4  5  2  0
  4  6  1  0
  6  7  1  0
  7 11  1  0
  7  8  2  0
  8  9  1  0
  9 10  2  0
 10 11  1  0
 10 12  1  0
 12 13  1  0
 13 14  1  0
 15 16  2  0
 15 17  2  0
 15 18  1  0
 18 19  1  0
 19 20  2  0
 19 21  1  0
 21 22  1  0
 22 27  2  0
 22 23  1  0
 23 24  2  0
 24 25  1  0
 25 26  2  0
 25 30  1  0
 26 27  1  0
 26 28  1  0
 28 29  1  0
 30 31  1  0
  1 32  1  0
  1 33  1  0
  1 34  1  0
  2 35  1  0
  2 36  1  0
  3 37  1  0
  6 38  1  0
 12 39  1  0
 12 40  1  0
 14 41  1  0
 14 42  1  0
 14 43  1  0
 18 44  1  0
 18 45  1  0
 21 46  1  0
 23 47  1  0
 24 48  1  0
 27 49  1  0
 29 50  1  0
 29 51  1  0
 29 52  1  0
 31 53  1  0
 31 54  1  0
 31 55  1  0
M  END
> <Name>
ZINC16892992

> <reference>
BDB50084673

> <quality>
0.766

> <status>
decoy

$$$$
ZINC29393390
  SciTegic06061311253D

 55 57  0  0  0  0            999 V2000
   15.4576    9.4805    0.1287 C   0  0
   14.8175    8.9398    1.4089 C   0  0
   13.5986    8.2246    1.0758 O   0  0
   12.9113    7.6844    2.0944 C   0  0
   13.3149    7.8051    3.2268 O   0  0
   11.6363    6.9273    1.8256 C   0  0
   10.9490    6.3248    3.3925 S   0  0
    9.4823    5.4730    2.9151 C   0  0
    8.9586    5.2866    1.7123 N   0  0
    7.8864    4.6440    1.5441 N   0  0
    7.2186    4.1167    2.5571 C   0  0
    8.2690    4.6189    3.9174 S   0  0
    6.0336    3.3851    2.5640 N   0  0
    5.3963    3.1235    1.4056 C   0  0
    5.8548    3.5253    0.3570 O   0  0
    4.1140    2.3318    1.4131 C   0  0
    3.6011    2.1782   -0.0202 C   0  0
    2.3188    1.3865   -0.0126 C   0  0
    1.1113    2.0220    0.0023 C   0  0
   -0.0158    1.3140    0.0093 N   0  0
    0.0021   -0.0041    0.0020 C   0  0
    1.1759   -0.6917   -0.0124 N   0  0
    2.3467   -0.0194   -0.0200 C   0  0
    3.4086   -0.6201   -0.0326 O   0  0
   -1.1810   -0.6929    0.0096 N   0  0
   -1.2154   -1.6927   -1.0676 C   0  0
   -2.5269   -2.4783   -0.9856 C   0  0
   -3.6274   -1.5678   -1.0567 O   0  0
   -3.6256   -0.5806   -0.0219 C   0  0
   -2.3253    0.2243   -0.0942 C   0  0
    1.0538    3.5279    0.0104 C   0  0
   14.7569   10.1649   -0.3720 H   0  0
   15.6965    8.6441   -0.5446 H   0  0
   16.3811   10.0225    0.3804 H   0  0
   15.5187    8.2553    1.9088 H   0  0
   14.5786    9.7762    2.0823 H   0  0
   10.9092    7.5942    1.3393 H   0  0
   11.8480    6.0726    1.1663 H   0  0
    5.6442    3.0439    3.4544 H   0  0
    4.2997    1.3369    1.8441 H   0  0
    3.3602    2.8582    2.0170 H   0  0
    3.4148    3.1727   -0.4517 H   0  0
    4.3532    1.6508   -0.6254 H   0  0
    1.1714   -1.7217   -0.0175 H   0  0
   -0.3668   -2.3837   -0.9561 H   0  0
   -1.1521   -1.1856   -2.0417 H   0  0
   -2.5831   -3.1878   -1.8244 H   0  0
   -2.5675   -3.0288   -0.0341 H   0  0
   -4.4830    0.0951   -0.1572 H   0  0
   -3.6968   -1.0744    0.9585 H   0  0
   -2.2942    0.9459    0.7354 H   0  0
   -2.2803    0.7625   -1.0525 H   0  0
    1.6197    3.8415   -0.8792 H   0  0
    1.6368    3.8326    0.8920 H   0  0
    0.0310    3.9327    0.0224 H   0  0
  1  2  1  0
  2  3  1  0
  3  4  1  0
  4  5  2  0
  4  6  1  0
  6  7  1  0
  7  8  1  0
  8 12  1  0
  8  9  2  0
  9 10  1  0
 10 11  2  0
 11 12  1  0
 11 13  1  0
 13 14  1  0
 14 15  2  0
 14 16  1  0
 16 17  1  0
 17 18  1  0
 18 23  1  0
 18 19  2  0
 19 20  1  0
 19 31  1  0
 20 21  2  0
 21 22  1  0
 21 25  1  0
 22 23  1  0
 23 24  2  0
 25 30  1  0
 25 26  1  0
 26 27  1  0
 27 28  1  0
 28 29  1  0
 29 30  1  0
  1 32  1  0
  1 33  1  0
  1 34  1  0
  2 35  1  0
  2 36  1  0
  6 37  1  0
  6 38  1  0
 13 39  1  0
 16 40  1  0
 16 41  1  0
 17 42  1  0
 17 43  1  0
 22 44  1  0
 26 45  1  0
 26 46  1  0
 27 47  1  0
 27 48  1  0
 29 49  1  0
 29 50  1  0
 30 51  1  0
 30 52  1  0
 31 53  1  0
 31 54  1  0
 31 55  1  0
M  END
> <Name>
ZINC29393390

> <reference>
BDB50084673

> <quality>
0.766

> <status>
decoy

$$$$
ZINC24448159
  SciTegic06061311253D

 65 67  0  0  1  0            999 V2000
    3.2517    3.4792    9.2323 C   0  0
    3.8861    2.8373    7.9969 C   0  0
    2.9028    2.9022    6.8266 C   0  0
    3.5372    2.2602    5.5911 C   0  0
    2.5957    2.3224    4.4705 N   0  0
    2.4882    3.3171    3.5681 C   0  0
    1.5409    3.0346    2.7105 N   0  0
    0.9939    1.8543    3.0128 C   0  0
    1.6504    1.3726    4.1384 C   0  0
    1.2666    0.1258    4.6776 C   0  0
    1.8267   -0.3176    5.6640 O   0  0
    0.2715   -0.5688    4.0876 N   0  0
   -0.3595   -0.0877    3.0026 C   0  0
   -1.2556   -0.7388    2.5009 O   0  0
   -0.0203    1.0939    2.4537 N   0  0
   -0.7288    1.5792    1.2668 C   0  0
   -0.0127    1.0858    0.0080 C   0  0
   -0.7527    1.5927   -1.2315 C   0  0
   -0.0366    1.0992   -2.4903 C   0  0
    3.3308    4.5664    3.5497 C   0  0
    2.6526    5.6513    4.3886 C   0  0
    3.4951    6.9007    4.3702 C   0  0
    4.5356    6.9212    3.7474 O   0  0
    3.0924    7.9951    5.0458 N   0  0
    3.9115    9.2096    5.0279 C   0  0  1  0  0  0
    3.2171   10.3059    5.8528 C   0  0
    3.3437    9.9331    7.3576 C   0  0
    5.0778    9.3123    7.4064 S   0  0
    5.9440   10.3866    7.7451 O   0  0
    5.1186    8.1140    8.1691 O   0  0
    5.3032    8.8997    5.6299 C   0  0
    4.0778    9.6887    3.5844 C   0  0
    2.3317    2.9373    9.4968 H   0  0
    3.0083    4.5300    9.0167 H   0  0
    3.9582    3.4329   10.0741 H   0  0
    4.8058    3.3800    7.7329 H   0  0
    4.1295    1.7864    8.2124 H   0  0
    1.9830    2.3593    7.0898 H   0  0
    2.6591    3.9525    6.6088 H   0  0
    4.4569    2.8028    5.3271 H   0  0
    3.7806    1.2093    5.8067 H   0  0
   -0.0088   -1.4813    4.4744 H   0  0
   -1.7606    1.1981    1.2742 H   0  0
   -0.7441    2.6791    1.2717 H   0  0
    1.0191    1.4669   -0.0002 H   0  0
    0.0025   -0.0141    0.0008 H   0  0
   -0.7679    2.6926   -1.2266 H   0  0
   -1.7846    1.2116   -1.2241 H   0  0
   -0.0215   -0.0007   -2.4975 H   0  0
    0.9955    1.4796   -2.4992 H   0  0
   -0.5681    1.4633   -3.3819 H   0  0
    4.3232    4.3457    3.9697 H   0  0
    3.4413    4.9203    2.5141 H   0  0
    2.5423    5.2996    5.4250 H   0  0
    1.6602    5.8727    3.9689 H   0  0
    2.2087    7.9776    5.5747 H   0  0
    2.1543   10.3624    5.5748 H   0  0
    3.7074   11.2734    5.6696 H   0  0
    2.6478    9.1229    7.6207 H   0  0
    3.2472   10.8269    7.9915 H   0  0
    5.5412    7.8312    5.5218 H   0  0
    6.0699    9.5538    5.1890 H   0  0
    3.0899    9.9072    3.1527 H   0  0
    4.5719    8.9054    2.9909 H   0  0
    4.6927   10.6007    3.5693 H   0  0
  1  2  1  0
  2  3  1  0
  3  4  1  0
  4  5  1  0
  5  9  1  0
  5  6  1  0
  6  7  2  0
  6 20  1  0
  7  8  1  0
  8 15  1  0
  8  9  2  0
  9 10  1  0
 10 11  2  0
 10 12  1  0
 12 13  1  0
 13 14  2  0
 13 15  1  0
 15 16  1  0
 16 17  1  0
 17 18  1  0
 18 19  1  0
 20 21  1  0
 21 22  1  0
 22 23  2  0
 22 24  1  0
 24 25  1  0
 25 31  1  0
 25 26  1  0
 25 32  1  0
 26 27  1  0
 27 28  1  0
 28 29  2  0
 28 30  2  0
 28 31  1  0
  1 33  1  0
  1 34  1  0
  1 35  1  0
  2 36  1  0
  2 37  1  0
  3 38  1  0
  3 39  1  0
  4 40  1  0
  4 41  1  0
 12 42  1  0
 16 43  1  0
 16 44  1  0
 17 45  1  0
 17 46  1  0
 18 47  1  0
 18 48  1  0
 19 49  1  0
 19 50  1  0
 19 51  1  0
 20 52  1  0
 20 53  1  0
 21 54  1  0
 21 55  1  0
 24 56  1  0
 26 57  1  0
 26 58  1  0
 27 59  1  0
 27 60  1  0
 31 61  1  0
 31 62  1  0
 32 63  1  0
 32 64  1  0
 32 65  1  0
M  END
> <Name>
ZINC24448159

> <reference>
BDB50084673

> <quality>
0.758

> <status>
decoy

$$$$
ZINC26673223
  SciTegic06061311253D

 56 57  0  0  1  0            999 V2000
   -1.8494    4.7997   -5.1869 C   0  0
   -1.7515    4.0442   -3.8867 C   0  0
   -2.2378    2.7532   -3.7992 C   0  0
   -2.1480    2.0601   -2.6065 C   0  0
   -1.5709    2.6577   -1.5016 C   0  0
   -1.0889    3.9504   -1.5878 C   0  0
   -1.1748    4.6419   -2.7817 C   0  0
   -1.4563    1.7742    0.0186 S   0  0
   -2.4755    0.7845   -0.0090 O   0  0
   -1.3685    2.7488    1.0490 O   0  0
   -0.0111    0.9658    0.0074 N   0  0
    1.2475    1.7155   -0.0006 C   0  0
    2.4022    0.7774    0.3567 C   0  0
    3.6608    1.5271    0.3487 N   0  0
    4.8195    0.9018    0.6364 C   0  0
    4.8203   -0.2816    0.9019 O   0  0
    6.1142    1.6729    0.6281 C   0  0
    7.2198    0.7747    0.9703 N   0  0
    7.8571   -0.0329   -0.0728 C   0  0
    7.7492    0.6723    2.5360 S   0  0
    9.0940    0.2163    2.4810 O   0  0
    7.3832    1.8907    3.1690 O   0  0
    6.8171   -0.6017    3.3188 C   0  0
    5.6311   -0.2914    3.9612 C   0  0
    4.8936   -1.2835    4.5719 C   0  0
    5.3520   -2.6046    4.5498 C   0  0
    6.5540   -2.9092    3.9032 C   0  0
    7.2777   -1.9066    3.2929 C   0  0
    4.5732   -3.6687    5.2032 C   0  0
    4.9734   -4.8131    5.1818 O   0  0
    3.2784   -3.3361    5.8989 C   0  0
   -0.8161    5.0910   -5.4266 H   0  0
   -2.3983    5.7208   -4.9416 H   0  0
   -2.3252    4.2294   -5.9983 H   0  0
   -2.6962    2.2774   -4.6786 H   0  0
   -2.5357    1.0331   -2.5366 H   0  0
   -0.6370    4.4288   -0.7064 H   0  0
   -0.7842    5.6678   -2.8524 H   0  0
    0.0029   -0.0641    0.0061 H   0  0
    1.4160    2.1387   -1.0018 H   0  0
    1.1955    2.5294    0.7375 H   0  0
    2.2345    0.3541    1.3581 H   0  0
    2.4565   -0.0366   -0.3811 H   0  0
    3.6602    2.5321    0.1232 H   0  0
    6.0622    2.4869    1.3661 H   0  0
    6.2827    2.0960   -0.3732 H   0  0
    8.1901    0.6941   -0.8282 H   0  0
    7.0362   -0.6101   -0.5234 H   0  0
    8.6760   -0.6734    0.2868 H   0  0
    5.2759    0.7494    3.9846 H   0  0
    3.9472   -1.0365    5.0752 H   0  0
    6.9212   -3.9459    3.8815 H   0  0
    8.2235   -2.1445    2.7842 H   0  0
    2.6631   -2.8453    5.1304 H   0  0
    3.5446   -2.5653    6.6371 H   0  0
    2.7757   -4.2022    6.3540 H   0  0
  1  2  1  0
  2  7  2  0
  2  3  1  0
  3  4  2  0
  4  5  1  0
  5  6  2  0
  5  8  1  0
  6  7  1  0
  8  9  2  0
  8 10  2  0
  8 11  1  0
 11 12  1  0
 12 13  1  0
 13 14  1  0
 14 15  1  0
 15 16  2  0
 15 17  1  0
 17 18  1  0
 18 19  1  0
 18 20  1  0
 20 21  2  0
 20 22  2  0
 20 23  1  0
 23 28  2  0
 23 24  1  0
 24 25  2  0
 25 26  1  0
 26 27  2  0
 26 29  1  0
 27 28  1  0
 29 30  2  0
 29 31  1  0
  1 32  1  0
  1 33  1  0
  1 34  1  0
  3 35  1  0
  4 36  1  0
  6 37  1  0
  7 38  1  0
 11 39  1  0
 12 40  1  0
 12 41  1  0
 13 42  1  0
 13 43  1  0
 14 44  1  0
 17 45  1  0
 17 46  1  0
 19 47  1  0
 19 48  1  0
 19 49  1  0
 24 50  1  0
 25 51  1  0
 27 52  1  0
 28 53  1  0
 31 54  1  0
 31 55  1  0
 31 56  1  0
M  END
> <Name>
ZINC26673223

> <reference>
BDB50084673

> <quality>
0.757

> <status>
decoy

$$$$
ZINC24999350
  SciTegic06061311253D

 62 64  0  0  1  0            999 V2000
    0.7142   10.6158   -1.2687 C   0  0
    0.6514    9.7785    0.0103 C   0  0
   -0.4021    8.7686   -0.1184 N   0  0
   -1.7690    9.0775    0.3087 C   0  0
   -1.9410    8.6993    1.7813 C   0  0
   -0.1104    7.5409   -0.6359 C   0  0
    1.0621    7.1031   -1.0657 N   0  0
    1.2673    5.9073   -1.5516 C   0  0
    2.3552    5.5289   -1.9402 O   0  0
    0.0222    5.0292   -1.5880 C   0  5
   -1.1952    6.2067   -0.8764 S   0  0
    0.1854    3.7915   -0.7034 C   0  0
   -1.0983    3.0020   -0.7025 C   0  0
   -2.0499    3.3909   -1.3461 O   0  0
   -1.1906    1.8666    0.0178 N   0  0
   -2.4152    1.1956    0.1126 C   0  0
   -2.4425   -0.1909    0.2050 C   0  0
   -3.6492   -0.8582    0.2998 C   0  0
   -4.8351   -0.1521    0.3033 C   0  0
   -4.8184    1.2404    0.2104 C   0  0
   -3.6003    1.9142    0.1202 C   0  0
   -6.0874    1.9994    0.2135 C   0  0
   -6.0705    3.2121    0.1325 O   0  0
   -7.2628    1.3465    0.3059 N   0  0
   -8.5201    2.0984    0.3089 C   0  0  2  0  0  0
   -8.8334    2.5625    1.7328 C   0  0
   -9.6351    1.2147   -0.1882 C   0  0
   -9.6616   -0.1828   -0.1392 C   0  0
  -10.7911   -0.5887   -0.6600 N   0  0
  -11.5158    0.5390   -1.0666 N   0  0
  -10.7850    1.6330   -0.7660 C   0  0
  -11.1787    3.0639   -1.0276 C   0  0
  -12.8340    0.5321   -1.7057 C   0  0
   -0.2530   11.1144   -1.4296 H   0  0
    0.9362    9.9625   -2.1254 H   0  0
    1.5051   11.3743   -1.1727 H   0  0
    1.6188    9.2800    0.1703 H   0  0
    0.4294   10.4318    0.8670 H   0  0
   -1.9583   10.1537    0.1826 H   0  0
   -2.4832    8.5055   -0.3018 H   0  0
   -1.2282    9.2713    2.3935 H   0  0
   -1.7520    7.6232    1.9090 H   0  0
   -2.9672    8.9310    2.1026 H   0  0
    0.4243    4.1028    0.3242 H   0  0
    1.0002    3.1652   -1.0956 H   0  0
   -0.3599    1.4927    0.4985 H   0  0
   -1.5006   -0.7591    0.2027 H   0  0
   -3.6645   -1.9557    0.3727 H   0  0
   -5.7934   -0.6868    0.3793 H   0  0
   -3.5804    3.0121    0.0553 H   0  0
   -7.2771    0.3189    0.3744 H   0  0
   -8.4251    2.9743   -0.3497 H   0  0
   -8.0202    3.2078    2.0965 H   0  0
   -8.9289    1.6872    2.3922 H   0  0
   -9.7774    3.1272    1.7358 H   0  0
   -8.8696   -0.8291    0.2671 H   0  0
  -10.3263    3.4441   -1.6098 H   0  0
  -11.0910    3.5222   -0.0315 H   0  0
  -12.1553    3.2217   -1.5086 H   0  0
  -13.4376   -0.0515   -0.9950 H   0  0
  -12.6733   -0.1284   -2.5705 H   0  0
  -13.2665    1.5102   -1.9633 H   0  0
  1  2  1  0
  2  3  1  0
  3  4  1  0
  3  6  1  0
  4  5  1  0
  6 11  1  0
  6  7  2  0
  7  8  1  0
  8  9  2  0
  8 10  1  0
 10 11  1  0
 10 12  1  0
 12 13  1  0
 13 14  2  0
 13 15  1  0
 15 16  1  0
 16 21  2  0
 16 17  1  0
 17 18  2  0
 18 19  1  0
 19 20  2  0
 20 21  1  0
 20 22  1  0
 22 23  2  0
 22 24  1  0
 24 25  1  0
 25 26  1  0
 25 27  1  0
 27 31  2  0
 27 28  1  0
 28 29  2  0
 29 30  1  0
 30 31  1  0
 30 33  1  0
 31 32  1  0
  1 34  1  0
  1 35  1  0
  1 36  1  0
  2 37  1  0
  2 38  1  0
  4 39  1  0
  4 40  1  0
  5 41  1  0
  5 42  1  0
  5 43  1  0
 12 44  1  0
 12 45  1  0
 15 46  1  0
 17 47  1  0
 18 48  1  0
 19 49  1  0
 21 50  1  0
 24 51  1  0
 25 52  1  0
 26 53  1  0
 26 54  1  0
 26 55  1  0
 28 56  1  0
 32 57  1  0
 32 58  1  0
 32 59  1  0
 33 60  1  0
 33 61  1  0
 33 62  1  0
M  CHG  1  10  -1
M  END
> <Name>
ZINC24999350

> <reference>
BDB50084673

> <quality>
0.755

> <status>
decoy

$$$$
ZINC14923475
  SciTegic06061311253D

 63 66  0  0  1  0            999 V2000
    2.4855    4.9853    2.3977 C   0  0
    1.5919    5.6760    1.3656 C   0  0
    2.4504    4.2111   -0.3606 C   0  0
    1.1225    3.5282   -0.5638 C   0  0
    1.1197    2.2227   -0.9423 N   0  0
   -0.0462    1.5643   -1.1383 C   0  0
   -0.0626    0.3952   -1.4781 O   0  0
   -1.2911    2.3156   -0.9313 C   0  0
   -2.5436    1.7249   -1.1012 C   0  0
   -3.6830    2.4731   -0.8898 C   0  0
   -3.5877    3.8138   -0.5017 C   0  0
   -2.3542    4.4094   -0.3236 C   0  0
   -1.1914    3.6680   -0.5330 C   0  0
    0.0395    4.2166   -0.3690 N   0  0
   -4.7192    4.5367   -0.2975 O   0  0
   -4.5555    5.9001    0.0980 C   0  0
   -4.9065    1.9038   -1.0593 O   0  0
   -4.9341    0.5314   -1.4563 C   0  0
    3.4828    6.3678    0.0208 C   0  0
    3.1761    7.8428    0.0587 C   0  0
    2.0257    8.2247    0.0072 O   0  0
    4.2680    8.8162    0.1577 C   0  0
    4.1388   10.2253    0.2033 C   0  0
    5.3979   10.7376    0.2946 C   0  0
    6.2939    9.6902    0.3065 N   0  0
    5.6227    8.5317    0.2306 C   0  0
    5.7419   12.1633    0.3683 C   0  0
    4.8618   13.0033    0.3499 O   0  0
    7.0326   12.5414    0.4563 N   0  0
    8.1901   11.6357    0.4944 C   0  0
    9.4537   12.5121    0.6221 C   0  0
    8.9006   13.8298    1.2262 C   0  0
    7.5171   13.9314    0.5367 C   0  0
    2.2091    5.6177    0.0238 N   0  0
    3.4629    5.4894    2.4213 H   0  0
    2.6272    3.9346    2.1045 H   0  0
    2.0177    5.0341    3.3921 H   0  0
    1.4473    6.7278    1.6533 H   0  0
    0.6132    5.1746    1.3374 H   0  0
    3.0289    4.1796   -1.2957 H   0  0
    3.0081    3.7017    0.4391 H   0  0
    2.0134    1.7299   -1.0812 H   0  0
   -2.6220    0.6696   -1.4017 H   0  0
   -2.2892    5.4641   -0.0179 H   0  0
   -3.9510    6.3792   -0.6862 H   0  0
   -3.9587    5.8846    1.0219 H   0  0
   -5.5145    6.4188    0.2439 H   0  0
   -4.3745   -0.0238   -0.6891 H   0  0
   -4.3677    0.4703   -2.3973 H   0  0
   -5.9565    0.1426   -1.5728 H   0  0
    4.0466    6.1320   -0.8938 H   0  0
    4.0750    6.0906    0.9054 H   0  0
    3.2001   10.7978    0.1711 H   0  0
    7.3181    9.7828    0.3646 H   0  0
    6.0707    7.5271    0.2268 H   0  0
    8.2373   11.0504   -0.4358 H   0  0
    8.1123   10.9680    1.3651 H   0  0
   10.1713   12.0480    1.3147 H   0  0
    9.8891   12.7021   -0.3700 H   0  0
    9.5352   14.6809    0.9382 H   0  0
    8.7795   13.7313    2.3151 H   0  0
    6.8346   14.5364    1.1517 H   0  0
    7.6307   14.3519   -0.4734 H   0  0
  1  2  1  0
  2 34  1  0
  3  4  1  0
  3 34  1  0
  4 14  2  0
  4  5  1  0
  5  6  1  0
  6  7  2  0
  6  8  1  0
  8 13  2  0
  8  9  1  0
  9 10  2  0
 10 11  1  0
 10 17  1  0
 11 12  2  0
 11 15  1  0
 12 13  1  0
 13 14  1  0
 15 16  1  0
 17 18  1  0
 19 20  1  0
 19 34  1  0
 20 21  2  0
 20 22  1  0
 22 26  2  0
 22 23  1  0
 23 24  2  0
 24 25  1  0
 24 27  1  0
 25 26  1  0
 27 28  2  0
 27 29  1  0
 29 33  1  0
 29 30  1  0
 30 31  1  0
 31 32  1  0
 32 33  1  0
  1 35  1  0
  1 36  1  0
  1 37  1  0
  2 38  1  0
  2 39  1  0
  3 40  1  0
  3 41  1  0
  5 42  1  0
  9 43  1  0
 12 44  1  0
 16 45  1  0
 16 46  1  0
 16 47  1  0
 18 48  1  0
 18 49  1  0
 18 50  1  0
 19 51  1  0
 19 52  1  0
 23 53  1  0
 25 54  1  0
 26 55  1  0
 30 56  1  0
 30 57  1  0
 31 58  1  0
 31 59  1  0
 32 60  1  0
 32 61  1  0
 33 62  1  0
 33 63  1  0
M  END
> <Name>
ZINC14923475

> <reference>
BDB50084673

> <quality>
0.753

> <status>
decoy

$$$$
ZINC10512067
  SciTegic06061311253D

 55 56  0  0  0  0            999 V2000
    9.6888    1.6073    5.0490 C   0  0
    8.3941    1.4147    4.3023 C   0  0
    8.1585    0.3555    3.7601 O   0  0
    7.4979    2.4192    4.2370 N   0  0
    6.3401    2.2758    3.4608 C   0  0
    5.7299    1.0354    3.3447 C   0  0
    4.5878    0.8966    2.5791 C   0  0
    4.0539    1.9904    1.9229 C   0  0
    4.6533    3.2308    2.0385 C   0  0
    5.7986    3.3785    2.8041 C   0  0
    6.3922    4.5968    2.9146 O   0  0
    5.7813    5.6820    2.2137 C   0  0
    3.8141   -0.6797    2.4329 S   0  0
    4.8181   -1.6507    2.6939 O   0  0
    3.0727   -0.6573    1.2208 O   0  0
    2.7097   -0.7989    3.6610 N   0  0
    1.6623    0.1117    3.7449 C   0  0
    1.0683    0.5974    2.5892 C   0  0
    0.0286    1.5083    2.6733 C   0  0
   -0.4354    1.9344    3.9195 C   0  0
    0.1423    1.4552    5.0754 C   0  0
    1.1982    0.5380    5.0003 C   0  0
    1.8178    0.0232    6.2302 C   0  0
    2.7340   -0.7727    6.1621 O   0  0
   -1.4610    2.8258    3.9930 O   0  0
   -1.8863    3.2194    5.2992 C   0  0
   -0.5458    1.9850    1.5390 O   0  0
   -0.0232    1.5083    0.2974 C   0  0
   -0.7904    2.1517   -0.8595 C   0  0
   -0.5510    3.5606   -0.8646 O   0  0
   -1.2253    4.2609   -1.9120 C   0  0
    1.3698    0.4340    7.4336 O   0  5
   10.4833    1.3987    4.3174 H   0  0
    9.7132    0.8085    5.8049 H   0  0
    9.7866    2.6074    5.4964 H   0  0
    7.6640    3.2923    4.7576 H   0  0
    6.1550    0.1626    3.8619 H   0  0
    3.1499    1.8733    1.3073 H   0  0
    4.2208    4.1007    1.5225 H   0  0
    4.7463    5.7438    2.5810 H   0  0
    5.7465    5.3858    1.1549 H   0  0
    6.3173    6.6327    2.3510 H   0  0
    2.7987   -1.5476    4.3627 H   0  0
    1.4236    0.2586    1.6048 H   0  0
   -0.2254    1.7926    6.0557 H   0  0
   -1.0005    3.6375    5.7998 H   0  0
   -2.1659    2.2946    5.8251 H   0  0
   -2.7171    3.9400    5.2772 H   0  0
   -0.1343    0.4151    0.2470 H   0  0
    1.0420    1.7724    0.2221 H   0  0
   -0.4493    1.7189   -1.8115 H   0  0
   -1.8672    1.9639   -0.7362 H   0  0
   -2.3027    4.0705   -1.7981 H   0  0
   -0.8945    3.8273   -2.8673 H   0  0
   -1.0135    5.3398   -1.8784 H   0  0
  1  2  1  0
  2  3  2  0
  2  4  1  0
  4  5  1  0
  5 10  2  0
  5  6  1  0
  6  7  2  0
  7  8  1  0
  7 13  1  0
  8  9  2  0
  9 10  1  0
 10 11  1  0
 11 12  1  0
 13 14  2  0
 13 15  2  0
 13 16  1  0
 16 17  1  0
 17 22  2  0
 17 18  1  0
 18 19  2  0
 19 20  1  0
 19 27  1  0
 20 21  2  0
 20 25  1  0
 21 22  1  0
 22 23  1  0
 23 24  2  0
 23 32  1  0
 25 26  1  0
 27 28  1  0
 28 29  1  0
 29 30  1  0
 30 31  1  0
  1 33  1  0
  1 34  1  0
  1 35  1  0
  4 36  1  0
  6 37  1  0
  8 38  1  0
  9 39  1  0
 12 40  1  0
 12 41  1  0
 12 42  1  0
 16 43  1  0
 18 44  1  0
 21 45  1  0
 26 46  1  0
 26 47  1  0
 26 48  1  0
 28 49  1  0
 28 50  1  0
 29 51  1  0
 29 52  1  0
 31 53  1  0
 31 54  1  0
 31 55  1  0
M  CHG  1  32  -1
M  END
> <Name>
ZINC10512067

> <reference>
BDB50084673

> <quality>
0.744

> <status>
decoy

$$$$
ZINC27991036
  SciTegic06061311253D

 56 59  0  0  1  0            999 V2000
    4.9477   -5.0173    2.8531 C   0  0
    4.4431   -4.6966    1.4447 C   0  0
    3.3687   -3.7233    1.5255 O   0  0
    2.8100   -3.3306    0.3633 C   0  0
    3.2100   -3.7894   -0.6889 O   0  0
    1.7165   -2.3472    0.3683 C   0  0
    0.3803   -2.6009    0.4475 C   0  0
   -0.2978   -1.4463    0.4237 O   0  0
    0.5302   -0.3926    0.3299 C   0  0
    1.8359   -0.8819    0.2893 C   0  0
    2.9102    0.0281    0.1911 C   0  0
    4.0637   -0.3645    0.1529 O   0  0
    2.6221    1.3492    0.1403 N   0  0
    1.3323    1.7654    0.1825 C   0  0
    0.3328    0.9337    0.2737 N   0  0
    3.7048    2.3309    0.0382 C   0  0
    4.0057    2.5976   -1.4142 C   0  0
    3.7758    3.8262   -1.9255 C   0  0
    4.0977    4.0527   -3.3887 C   0  0  1  0  0  0
    4.6279    2.9030   -4.1409 N   0  0
    4.7978    1.7346   -3.4911 C   0  0
    5.2349    0.7796   -4.1031 O   0  0
    4.5012    1.5914   -2.1933 N   0  0
    2.8350    4.5118   -4.0712 C   0  0
    2.4618    5.7907   -4.2574 C   0  0
    1.2210    5.7609   -4.9345 C   0  0
    0.9102    4.4656   -5.1216 C   0  0
    1.8941    3.7137   -4.6018 O   0  0
    3.2570    4.8677   -1.1210 C   0  0
    2.0718    5.1392   -1.1670 O   0  0
    4.0766    5.5602   -0.3027 O   0  0
    3.4851    6.5985    0.4810 C   0  0
    4.5615    7.2658    1.3393 C   0  0
   -0.2398   -3.9708    0.5458 C   0  0
    4.1239   -5.4306    3.4536 H   0  0
    5.3215   -4.0982    3.3279 H   0  0
    5.7617   -5.7547    2.7926 H   0  0
    5.2674   -4.2831    0.8450 H   0  0
    4.0693   -5.6157    0.9698 H   0  0
    1.1218    2.8442    0.1382 H   0  0
    3.3979    3.2676    0.5265 H   0  0
    4.6055    1.9378    0.5323 H   0  0
    4.9128    4.7913   -3.3911 H   0  0
    4.8633    2.9898   -5.1399 H   0  0
    4.6554    0.6707   -1.7581 H   0  0
    3.0157    6.6876   -3.9432 H   0  0
    0.6243    6.6301   -5.2481 H   0  0
    0.0039    4.0865   -5.6164 H   0  0
    3.0314    7.3474   -0.1848 H   0  0
    2.7100    6.1705    1.1337 H   0  0
    5.3370    7.6954    0.6881 H   0  0
    5.0162    6.5181    2.0058 H   0  0
    4.1068    8.0652    1.9428 H   0  0
    0.2618   -4.4054    1.4230 H   0  0
    0.1742   -4.4915   -0.3302 H   0  0
   -1.3380   -4.0005    0.6021 H   0  0
  1  2  1  0
  2  3  1  0
  3  4  1  0
  4  5  2  0
  4  6  1  0
  6 10  1  0
  6  7  2  0
  7  8  1  0
  7 34  1  0
  8  9  1  0
  9 15  1  0
  9 10  2  0
 10 11  1  0
 11 12  2  0
 11 13  1  0
 13 14  1  0
 13 16  1  0
 14 15  2  0
 16 17  1  0
 17 23  1  0
 17 18  2  0
 18 19  1  0
 18 29  1  0
 19 20  1  0
 19 24  1  0
 20 21  1  0
 21 22  2  0
 21 23  1  0
 24 28  1  0
 24 25  2  0
 25 26  1  0
 26 27  2  0
 27 28  1  0
 29 30  2  0
 29 31  1  0
 31 32  1  0
 32 33  1  0
  1 35  1  0
  1 36  1  0
  1 37  1  0
  2 38  1  0
  2 39  1  0
 14 40  1  0
 16 41  1  0
 16 42  1  0
 19 43  1  0
 20 44  1  0
 23 45  1  0
 25 46  1  0
 26 47  1  0
 27 48  1  0
 32 49  1  0
 32 50  1  0
 33 51  1  0
 33 52  1  0
 33 53  1  0
 34 54  1  0
 34 55  1  0
 34 56  1  0
M  END
> <Name>
ZINC27991036

> <reference>
BDB50084673

> <quality>
0.742

> <status>
decoy

$$$$
ZINC26853123
  SciTegic06061311253D

 59 60  0  0  1  0            999 V2000
   -8.7493    0.8669   12.3425 C   0  0
   -8.9653   -0.0403   11.1296 C   0  0
  -10.3649    0.0383   10.7041 N   0  0
  -11.3734   -0.8111   11.3426 C   0  0
  -11.3951   -2.1794   10.6583 C   0  0
  -10.8071    1.0872    9.5014 S   0  0
   -9.8259    2.1148    9.4777 O   0  0
  -12.1896    1.3582    9.6868 O   0  0
  -10.6643    0.2193    7.9746 C   0  0
  -11.7669   -0.4961    7.4714 C   0  0
  -11.6587   -1.1662    6.2939 C   0  0
  -10.4365   -1.1329    5.5926 C   0  0
  -10.0254   -1.6656    4.4568 N   0  0
   -8.8015   -1.3333    4.2401 N   0  0
   -8.3531   -0.5808    5.2196 C   0  0
   -9.3734   -0.4235    6.1104 N   0  0
   -9.4997    0.2449    7.2962 C   0  0
   -6.7352    0.1043    5.3533 S   0  0
   -5.8862   -0.4807    3.8608 C   0  0  2  0  0  0
   -5.7551   -2.0042    3.9127 C   0  0
   -4.5146    0.1393    3.7876 C   0  0
   -3.9624    0.5108    4.8009 O   0  0
   -3.9017    0.2807    2.5956 N   0  0
   -2.6751    0.8351    2.5300 C   0  0
   -2.1215    1.2076    3.5459 O   0  0
   -2.0622    0.9766    1.3380 N   0  0
   -0.7288    1.5792    1.2668 C   0  0  2  0  0  0
   -0.8599    3.1027    1.2150 C   0  0
   -0.0127    1.0858    0.0080 C   0  0
   -0.7038    1.5592   -1.1497 O   0  0
   -0.1136    1.1523   -2.3859 C   0  0
   -9.4011    0.5407   13.1664 H   0  0
   -8.9920    1.9053   12.0728 H   0  0
   -7.6985    0.8084   12.6625 H   0  0
   -8.3134    0.2868   10.3062 H   0  0
   -8.7226   -1.0788   11.3992 H   0  0
  -12.3631   -0.3400   11.2500 H   0  0
  -11.1257   -0.9379   12.4068 H   0  0
  -10.4064   -2.6525   10.7509 H   0  0
  -11.6428   -2.0543    9.5939 H   0  0
  -12.1522   -2.8177   11.1373 H   0  0
  -12.7144   -0.5129    8.0300 H   0  0
  -12.5151   -1.7281    5.8928 H   0  0
   -8.6449    0.8076    7.6996 H   0  0
   -6.4667   -0.1927    2.9720 H   0  0
   -6.7558   -2.4579    3.9659 H   0  0
   -5.1743   -2.2933    4.8010 H   0  0
   -5.2403   -2.3597    3.0079 H   0  0
   -4.3708   -0.0350    1.7347 H   0  0
   -2.5313    0.6610    0.4771 H   0  0
   -0.1482    1.2911    2.1556 H   0  0
   -1.3744    3.4585    2.1198 H   0  0
   -1.4401    3.3919    0.3263 H   0  0
    0.1410    3.5559    1.1615 H   0  0
    1.0191    1.4669   -0.0002 H   0  0
    0.0026   -0.0141    0.0008 H   0  0
   -0.0888    0.0526   -2.3954 H   0  0
    0.9217    1.5237   -2.3971 H   0  0
   -0.6764    1.5379   -3.2488 H   0  0
  1  2  1  0
  2  3  1  0
  3  4  1  0
  3  6  1  0
  4  5  1  0
  6  7  2  0
  6  8  2  0
  6  9  1  0
  9 17  2  0
  9 10  1  0
 10 11  2  0
 11 12  1  0
 12 16  1  0
 12 13  2  0
 13 14  1  0
 14 15  2  0
 15 16  1  0
 15 18  1  0
 16 17  1  0
 18 19  1  0
 19 20  1  0
 19 21  1  0
 21 22  2  0
 21 23  1  0
 23 24  1  0
 24 25  2  0
 24 26  1  0
 26 27  1  0
 27 28  1  0
 27 29  1  0
 29 30  1  0
 30 31  1  0
  1 32  1  0
  1 33  1  0
  1 34  1  0
  2 35  1  0
  2 36  1  0
  4 37  1  0
  4 38  1  0
  5 39  1  0
  5 40  1  0
  5 41  1  0
 10 42  1  0
 11 43  1  0
 17 44  1  0
 19 45  1  0
 20 46  1  0
 20 47  1  0
 20 48  1  0
 23 49  1  0
 26 50  1  0
 27 51  1  0
 28 52  1  0
 28 53  1  0
 28 54  1  0
 29 55  1  0
 29 56  1  0
 31 57  1  0
 31 58  1  0
 31 59  1  0
M  END
> <Name>
ZINC26853123

> <reference>
BDB50084673

> <quality>
0.741

> <status>
decoy

$$$$
ZINC11615128
  SciTegic06061311253D

 64 66  0  0  1  0            999 V2000
    0.9250    8.0961    5.3744 C   0  0
    1.0687    6.1801    6.8477 C   0  0
    0.7393    5.8574    4.4708 C   0  0
    1.2611    6.2740    3.0941 C   0  0
    0.6165    5.3981    2.0179 C   0  0
    1.1162    5.7970    0.6998 N   0  0
    2.3000    5.2533    0.0239 C   0  0  2  0  0  0
    2.3996    5.9774   -1.2984 C   0  0
    1.3622    6.8443   -1.3480 C   0  0
    0.5710    6.7267   -0.1056 C   0  0
   -0.4252    7.3735    0.1505 O   0  0
    1.0924    7.6861   -2.3726 O   0  5
    3.4234    5.7782   -2.3301 C   0  0
    3.1157    5.3089   -3.4104 O   0  0
    4.8238    6.1460   -2.0588 C   0  0
    5.1640    6.7793   -0.8583 C   0  0
    6.4628    7.1153   -0.6060 C   0  0
    7.4557    6.8413   -1.5430 C   0  0
    7.1349    6.2187   -2.7406 C   0  0
    5.8223    5.8679   -3.0064 C   0  0
    5.5025    5.2586   -4.1754 O   0  0
    8.7426    7.1850   -1.2837 O   0  0
    9.0225    7.7219    0.0107 C   0  0
    2.1311    3.7737   -0.2069 C   0  0
    0.8653    3.2221   -0.2551 C   0  0
    0.7101    1.8596   -0.4614 C   0  0
    1.8254    1.0523   -0.6308 C   0  0
    3.0905    1.6045   -0.5884 C   0  0
    3.2460    2.9666   -0.3763 C   0  0
    4.4917    3.5103   -0.3340 O   0  0
    5.5966    2.6073   -0.4114 C   0  0
   -0.5356    1.3159   -0.5032 O   0  0
   -0.6212   -0.0932   -0.7252 C   0  0
    1.3866    6.6976    5.5003 N   0  3
    1.4278    8.7146    6.1325 H   0  0
   -0.1625    8.1359    5.5350 H   0  0
    1.1635    8.4771    4.3704 H   0  0
   -0.0190    6.2226    7.0062 H   0  0
    1.5713    6.8013    7.6037 H   0  0
    1.4138    5.1395    6.9369 H   0  0
    0.9819    4.8001    4.6532 H   0  0
   -0.3505    6.0011    4.5106 H   0  0
    1.0068    7.3281    2.9090 H   0  0
    2.3535    6.1491    3.0616 H   0  0
    0.8707    4.3439    2.2022 H   0  0
   -0.4760    5.5226    2.0481 H   0  0
    3.2081    5.3940    0.6285 H   0  0
    4.3838    7.0067   -0.1169 H   0  0
    6.7265    7.6053    0.3429 H   0  0
    7.9224    6.0041   -3.4780 H   0  0
    4.8104    5.8383   -4.5817 H   0  0
    8.6916    6.9654    0.7375 H   0  0
    8.3770    8.6052    0.1254 H   0  0
   10.0843    7.9759    0.1454 H   0  0
   -0.0194    3.8637   -0.1298 H   0  0
    1.7021   -0.0278   -0.7989 H   0  0
    3.9749    0.9643   -0.7228 H   0  0
    5.4728    2.0469   -1.3498 H   0  0
    5.4768    1.8999    0.4224 H   0  0
    6.5689    3.1202   -0.3710 H   0  0
   -0.0404   -0.5688    0.0788 H   0  0
   -0.1038   -0.2885   -1.6761 H   0  0
   -1.6586   -0.4584   -0.7460 H   0  0
    2.4070    6.6684    5.3629 H   0  0
  1 34  1  0
  2 34  1  0
  3  4  1  0
  3 34  1  0
  4  5  1  0
  5  6  1  0
  6 10  1  0
  6  7  1  0
  7  8  1  0
  7 24  1  0
  8  9  2  0
  8 13  1  0
  9 10  1  0
  9 12  1  0
 10 11  2  0
 13 14  2  0
 13 15  1  0
 15 20  2  0
 15 16  1  0
 16 17  2  0
 17 18  1  0
 18 19  2  0
 18 22  1  0
 19 20  1  0
 20 21  1  0
 22 23  1  0
 24 29  2  0
 24 25  1  0
 25 26  2  0
 26 27  1  0
 26 32  1  0
 27 28  2  0
 28 29  1  0
 29 30  1  0
 30 31  1  0
 32 33  1  0
  1 35  1  0
  1 36  1  0
  1 37  1  0
  2 38  1  0
  2 39  1  0
  2 40  1  0
  3 41  1  0
  3 42  1  0
  4 43  1  0
  4 44  1  0
  5 45  1  0
  5 46  1  0
  7 47  1  0
 16 48  1  0
 17 49  1  0
 19 50  1  0
 21 51  1  0
 23 52  1  0
 23 53  1  0
 23 54  1  0
 25 55  1  0
 27 56  1  0
 28 57  1  0
 31 58  1  0
 31 59  1  0
 31 60  1  0
 33 61  1  0
 33 62  1  0
 33 63  1  0
 34 64  1  0
M  CHG  2  12  -1  34   1
M  END
> <Name>
ZINC11615128

> <reference>
BDB50084673

> <quality>
0.739

> <status>
decoy

$$$$
ZINC29157539
  SciTegic06061311253D

 56 58  0  0  0  0            999 V2000
    4.8820   10.8537    5.7867 C   0  0
    4.7251    9.4398    5.2236 C   0  0
    3.8966    8.6419    6.1309 N   0  0
    4.5082    7.9660    7.2778 C   0  0
    5.0668    6.6126    6.8337 C   0  0
    2.2687    8.5042    5.8602 S   0  0
    1.8865    9.6397    5.0962 O   0  0
    1.6736    8.1931    7.1126 O   0  0
    2.0297    7.0978    4.8260 C   0  0
    2.0211    7.0961    3.4276 C   0  0
    1.7999    5.7960    3.0255 C   0  0
    1.6864    5.0247    4.1599 N   0  0
    1.8275    5.8254    5.2443 C   0  0
    1.7084    5.3205    1.6410 C   0  0
    1.8267    6.1057    0.7188 O   0  0
    1.4932    4.0139    1.3901 N   0  0
    1.4018    3.5389    0.0073 C   0  0
    1.1597    2.0514    0.0020 C   0  0
   -0.0167    1.3780    0.0096 C   0  0
    0.0021   -0.0041    0.0020 C   0  0
    1.1962   -0.6452   -0.0128 C   0  0
    2.3478    0.7191   -0.0165 S   0  0
    1.5264   -2.3759   -0.0248 S   0  0
    2.8311   -2.5443    0.5126 O   0  0
    0.3846   -3.0111    0.5340 O   0  0
    1.6028   -2.8489   -1.6100 N   0  0
    0.4699   -3.3236   -2.4181 C   0  0
    1.0193   -3.6716   -3.8175 C   0  0
    2.5268   -3.9178   -3.5454 C   0  0
    2.8191   -2.8698   -2.4427 C   0  0
    5.3637   10.8047    6.7744 H   0  0
    3.8916   11.3222    5.8853 H   0  0
    5.5040   11.4533    5.1059 H   0  0
    4.2431    9.4897    4.2361 H   0  0
    5.7154    8.9712    5.1250 H   0  0
    5.3247    8.5861    7.6764 H   0  0
    3.7505    7.8103    8.0599 H   0  0
    5.8256    6.7665    6.0523 H   0  0
    4.2514    5.9912    6.4349 H   0  0
    5.5262    6.1045    7.6944 H   0  0
    2.1639    7.9678    2.7720 H   0  0
    1.5217    4.0082    4.1811 H   0  0
    1.7848    5.4958    6.2929 H   0  0
    1.3930    3.3493    2.1706 H   0  0
    0.5691    4.0472   -0.5009 H   0  0
    2.3419    3.7585   -0.5199 H   0  0
   -0.9720    1.9232    0.0216 H   0  0
   -0.9380   -0.5752    0.0079 H   0  0
   -0.2866   -2.5296   -2.5038 H   0  0
    0.0337   -4.2220   -1.9569 H   0  0
    0.5461   -4.5899   -4.1954 H   0  0
    0.8906   -2.8197   -4.5014 H   0  0
    3.1203   -3.7015   -4.4459 H   0  0
    2.6854   -4.9352   -3.1585 H   0  0
    3.6846   -3.1875   -1.8427 H   0  0
    2.9837   -1.8818   -2.8975 H   0  0
  1  2  1  0
  2  3  1  0
  3  4  1  0
  3  6  1  0
  4  5  1  0
  6  7  2  0
  6  8  2  0
  6  9  1  0
  9 13  2  0
  9 10  1  0
 10 11  2  0
 11 12  1  0
 11 14  1  0
 12 13  1  0
 14 15  2  0
 14 16  1  0
 16 17  1  0
 17 18  1  0
 18 22  1  0
 18 19  2  0
 19 20  1  0
 20 21  2  0
 21 22  1  0
 21 23  1  0
 23 24  2  0
 23 25  2  0
 23 26  1  0
 26 30  1  0
 26 27  1  0
 27 28  1  0
 28 29  1  0
 29 30  1  0
  1 31  1  0
  1 32  1  0
  1 33  1  0
  2 34  1  0
  2 35  1  0
  4 36  1  0
  4 37  1  0
  5 38  1  0
  5 39  1  0
  5 40  1  0
 10 41  1  0
 12 42  1  0
 13 43  1  0
 16 44  1  0
 17 45  1  0
 17 46  1  0
 19 47  1  0
 20 48  1  0
 27 49  1  0
 27 50  1  0
 28 51  1  0
 28 52  1  0
 29 53  1  0
 29 54  1  0
 30 55  1  0
 30 56  1  0
M  END
> <Name>
ZINC29157539

> <reference>
BDB50084673

> <quality>
0.736

> <status>
decoy

$$$$
ZINC25715529
  SciTegic06061311253D

 65 67  0  0  1  0            999 V2000
   -5.6725   -1.1209    1.4320 C   0  0
   -5.0976   -2.4720    1.4753 N   0  3
   -3.8380   -2.5326    0.7220 C   0  0
   -4.9038   -2.9174    2.8617 C   0  0  1  0  0  0
   -4.7021   -1.6993    3.7653 C   0  0
   -3.4836   -0.9911    3.3654 N   0  0
   -3.1755    0.1926    3.9316 C   0  0
   -3.9089    0.6726    4.7742 O   0  0
   -1.9484    0.9058    3.5289 C   0  0
   -1.1028    0.3579    2.5611 C   0  0
    0.0415    1.0292    2.1890 C   0  0
    0.3610    2.2436    2.7743 C   0  0
   -0.4684    2.7989    3.7281 C   0  0
   -1.6244    2.1370    4.1146 C   0  0
   -2.4379    2.6791    5.0551 O   0  0
   -2.0431    3.9364    5.6076 C   0  0
    1.1071    0.3365    0.9687 S   0  0
    0.8742   -1.0653    0.9746 O   0  0
    2.3947    0.8957    1.1892 O   0  0
    0.5942    0.8953   -0.5034 N   0  0
   -0.4061    0.1544   -1.2882 C   0  0
   -1.5140    1.1365   -1.7015 C   0  0
   -0.9214    2.2710   -2.3383 O   0  0
   -0.0491    3.0265   -1.4945 C   0  0
    1.1297    2.1442   -1.0680 C   0  0
   -6.1180   -3.6851    3.3171 C   0  0
   -7.3837   -3.2029    3.0391 C   0  0
   -8.4984   -3.9076    3.4506 C   0  0
   -8.3470   -5.0941    4.1534 C   0  0
   -7.0759   -5.5729    4.4360 C   0  0
   -5.9645   -4.8675    4.0170 C   0  0
   -9.4420   -5.7859    4.5649 O   0  0
  -10.7188   -5.2334    4.2386 C   0  0
   -5.8585   -0.8472    0.3829 H   0  0
   -4.9506   -0.4134    1.8660 H   0  0
   -6.6143   -1.0906    1.9996 H   0  0
   -5.7658   -3.1148    1.0268 H   0  0
   -3.1270   -1.8168    1.1602 H   0  0
   -4.0348   -2.2506   -0.3229 H   0  0
   -3.4195   -3.5490    0.7631 H   0  0
   -4.0174   -3.5663    2.9178 H   0  0
   -4.6077   -2.0284    4.8107 H   0  0
   -5.5657   -1.0247    3.6698 H   0  0
   -2.8623   -1.3978    2.6516 H   0  0
   -1.3502   -0.6081    2.0968 H   0  0
    1.2810    2.7685    2.4773 H   0  0
   -0.2121    3.7675    4.1821 H   0  0
   -1.9492    4.6310    4.7598 H   0  0
   -1.0400    3.7859    6.0333 H   0  0
   -2.7512    4.3108    6.3616 H   0  0
   -0.8369   -0.6509   -0.6751 H   0  0
    0.0670   -0.2678   -2.1870 H   0  0
   -2.2024    0.6405   -2.4016 H   0  0
   -2.0676    1.4642   -0.8092 H   0  0
    0.3279    3.9012   -2.0447 H   0  0
   -0.5982    3.3610   -0.6020 H   0  0
    1.7259    2.6684   -0.3066 H   0  0
    1.7554    1.9168   -1.9437 H   0  0
   -7.5032   -2.2574    2.4898 H   0  0
   -9.5051   -3.5283    3.2212 H   0  0
   -6.9532   -6.5134    4.9932 H   0  0
   -4.9565   -5.2469    4.2404 H   0  0
  -10.7405   -5.1302    3.1437 H   0  0
  -10.7388   -4.2231    4.6732 H   0  0
  -11.5544   -5.8483    4.6042 H   0  0
  1  2  1  0
  2  3  1  0
  2  4  1  0
  4  5  1  0
  4 26  1  0
  5  6  1  0
  6  7  1  0
  7  8  2  0
  7  9  1  0
  9 14  2  0
  9 10  1  0
 10 11  2  0
 11 12  1  0
 11 17  1  0
 12 13  2  0
 13 14  1  0
 14 15  1  0
 15 16  1  0
 17 18  2  0
 17 19  2  0
 17 20  1  0
 20 25  1  0
 20 21  1  0
 21 22  1  0
 22 23  1  0
 23 24  1  0
 24 25  1  0
 26 31  2  0
 26 27  1  0
 27 28  2  0
 28 29  1  0
 29 30  2  0
 29 32  1  0
 30 31  1  0
 32 33  1  0
  1 34  1  0
  1 35  1  0
  1 36  1  0
  2 37  1  0
  3 38  1  0
  3 39  1  0
  3 40  1  0
  4 41  1  0
  5 42  1  0
  5 43  1  0
  6 44  1  0
 10 45  1  0
 12 46  1  0
 13 47  1  0
 16 48  1  0
 16 49  1  0
 16 50  1  0
 21 51  1  0
 21 52  1  0
 22 53  1  0
 22 54  1  0
 24 55  1  0
 24 56  1  0
 25 57  1  0
 25 58  1  0
 27 59  1  0
 28 60  1  0
 30 61  1  0
 31 62  1  0
 33 63  1  0
 33 64  1  0
 33 65  1  0
M  CHG  1   2   1
M  END
> <Name>
ZINC25715529

> <reference>
BDB50084673

> <quality>
0.736

> <status>
decoy

$$$$
ZINC15792671
  SciTegic06061311253D

 50 51  0  0  1  0            999 V2000
    4.2860   -1.8856   -2.3325 C   0  0
    4.4832   -0.6168   -1.6272 N   0  0
    5.0781    0.5250   -2.3261 C   0  0
    6.5805    0.4239   -2.2655 C   0  0
    7.1029   -0.5100   -1.6946 O   0  0
    7.3436    1.3713   -2.8456 N   0  0
    8.7403    1.2773   -2.7892 N   0  0
    9.5035    2.2247   -3.3693 C   0  0
    8.9798    3.1609   -3.9416 O   0  0
   10.9751    2.1257   -3.3099 C   0  0
   11.5780    1.0534   -2.6477 C   0  0
   12.9563    0.9600   -2.5985 C   0  0
   13.7435    1.9393   -3.1982 C   0  0
   13.1451    3.0119   -3.8538 C   0  0
   11.7672    3.1070   -3.9108 C   0  0
   13.9168    3.9672   -4.4382 O   0  0
   13.2365    5.0397   -5.0932 C   0  0
   15.0983    1.8479   -3.1439 O   0  0
   15.7464    2.4688   -2.0319 C   0  0
   13.5439   -0.0868   -1.9592 O   0  0
   12.6759   -1.0549   -1.3663 C   0  0
    4.0337   -0.4733   -0.0398 S   0  0
    4.8137    0.5798    0.5095 O   0  0
    4.0362   -1.7864    0.5033 O   0  0
    2.3599    0.0767   -0.0201 C   0  0
    1.2207   -0.6572   -0.0131 C   0  0
    0.0021   -0.0041    0.0020 C   0  0
   -0.0163    1.3524    0.0095 C   0  0
    1.7251    1.7452   -0.0050 S   0  0
   -1.3795    2.4272    0.0222 Cl  0  0
    5.2840   -2.1584   -2.7061 H   0  0
    3.6745   -1.6283   -3.2099 H   0  0
    3.8329   -2.6790   -1.7200 H   0  0
    4.7546    1.4599   -1.8451 H   0  0
    4.7530    0.5218   -3.3770 H   0  0
    6.9000    2.1644   -3.3304 H   0  0
    9.1839    0.4842   -2.3044 H   0  0
   10.9565    0.2842   -2.1659 H   0  0
   11.2949    3.9546   -4.4289 H   0  0
   12.5894    5.5045   -4.3347 H   0  0
   12.5883    4.5771   -5.8521 H   0  0
   13.9260    5.7708   -5.5405 H   0  0
   15.3119    2.0160   -1.1284 H   0  0
   15.4510    3.5282   -2.0538 H   0  0
   16.8399    2.3525   -2.0575 H   0  0
   12.0351   -1.4330   -2.1765 H   0  0
   12.0369   -0.5055   -0.6593 H   0  0
   13.2233   -1.8693   -0.8691 H   0  0
    1.2648   -1.7563   -0.0193 H   0  0
   -0.9378   -0.5755    0.0078 H   0  0
  1  2  1  0
  2  3  1  0
  2 22  1  0
  3  4  1  0
  4  5  2  0
  4  6  1  0
  6  7  1  0
  7  8  1  0
  8  9  2  0
  8 10  1  0
 10 15  2  0
 10 11  1  0
 11 12  2  0
 12 13  1  0
 12 20  1  0
 13 14  2  0
 13 18  1  0
 14 15  1  0
 14 16  1  0
 16 17  1  0
 18 19  1  0
 20 21  1  0
 22 23  2  0
 22 24  2  0
 22 25  1  0
 25 29  1  0
 25 26  2  0
 26 27  1  0
 27 28  2  0
 28 29  1  0
 28 30  1  0
  1 31  1  0
  1 32  1  0
  1 33  1  0
  3 34  1  0
  3 35  1  0
  6 36  1  0
  7 37  1  0
 11 38  1  0
 15 39  1  0
 17 40  1  0
 17 41  1  0
 17 42  1  0
 19 43  1  0
 19 44  1  0
 19 45  1  0
 21 46  1  0
 21 47  1  0
 21 48  1  0
 26 49  1  0
 27 50  1  0
M  END
> <Name>
ZINC15792671

> <reference>
BDB50084673

> <quality>
0.735

> <status>
decoy

$$$$
ZINC28940522
  SciTegic06061311253D

 71 73  0  0  1  0            999 V2000
  -10.7139   -1.5671   -4.9091 C   0  0
  -11.1938   -0.6231   -6.0134 C   0  0
  -11.8025    0.5650   -5.4100 N   0  0
  -13.1318    0.7211   -5.0719 C   0  0
  -14.2551   -0.0894   -5.1661 C   0  0
  -15.4755    0.3818   -4.7315 C   0  0
  -15.5879    1.6595   -4.2016 C   0  0
  -14.4935    2.4708   -4.1007 C   0  0
  -13.2461    2.0145   -4.5349 C   0  0
  -12.0061    2.5669   -4.5670 N   0  0
  -11.1619    1.7175   -5.0756 C   0  0
   -9.6901    1.9753   -5.2716 C   0  0
   -8.9248    1.5387   -4.0208 C   0  0
   -7.4530    1.7965   -4.2168 C   0  0
   -7.0553    2.2817   -5.2548 O   0  0
   -6.5787    1.4878   -3.2387 N   0  0
   -5.1479    1.7385   -3.4293 C   0  0
   -4.3826    1.3018   -2.1785 C   0  0
   -2.8883    1.5635   -2.3775 C   0  0
   -2.1536    1.1443   -1.1766 N   0  3
   -0.7549    1.5938   -1.2309 C   0  0
   -0.0127    1.0858    0.0080 C   0  0  2  0  0  0
   -0.6838    1.5479    1.1834 O   0  0
   -2.0490    1.1278    1.2686 C   0  0  2  0  0  0
   -2.8119    1.6362    0.0424 C   0  0
   -2.6822    1.7009    2.5380 C   0  0
    1.4224    1.6163   -0.0028 C   0  0
  -17.1580    2.2410   -3.6528 S   0  0
  -17.1058    3.6602   -3.7032 O   0  0
  -18.1378    1.4893   -4.3558 O   0  0
  -17.3017    1.8291   -2.0553 N   0  0
  -16.8395    2.7527   -1.0163 C   0  0
  -17.8910    0.5411   -1.6811 C   0  0
  -11.5690   -1.8699   -4.2870 H   0  0
   -9.9699   -1.0526   -4.2832 H   0  0
  -10.2567   -2.4594   -5.3616 H   0  0
  -11.9378   -1.1375   -6.6394 H   0  0
  -10.3381   -0.3205   -6.6348 H   0  0
  -14.1716   -1.1028   -5.5856 H   0  0
  -16.3663   -0.2593   -4.8052 H   0  0
  -14.5940    3.4815   -3.6784 H   0  0
   -9.3299    1.4034   -6.1394 H   0  0
   -9.5247    3.0488   -5.4456 H   0  0
   -9.0881    0.4651   -3.8458 H   0  0
   -9.2842    2.1106   -3.1526 H   0  0
   -6.9164    1.0756   -2.3572 H   0  0
   -4.7877    1.1666   -4.2972 H   0  0
   -4.9826    2.8120   -3.6032 H   0  0
   -4.7420    1.8736   -1.3103 H   0  0
   -4.5459    0.2282   -2.0035 H   0  0
   -2.5281    0.9915   -3.2453 H   0  0
   -2.7229    2.6370   -2.5515 H   0  0
   -2.1574    0.1147   -1.1485 H   0  0
   -0.2750    1.1928   -2.1358 H   0  0
   -0.7218    2.6931   -1.2527 H   0  0
    0.0050   -0.0140    0.0019 H   0  0
   -2.0950    0.0293    1.3024 H   0  0
   -3.8476    1.2671    0.0763 H   0  0
   -2.8126    2.7362    0.0412 H   0  0
   -2.6386    2.7996    2.5063 H   0  0
   -2.1320    1.3382    3.4188 H   0  0
   -3.7317    1.3780    2.6035 H   0  0
    1.4076    2.7162    0.0048 H   0  0
    1.9377    1.2636   -0.9084 H   0  0
    1.9560    1.2515    0.8873 H   0  0
  -17.3822    3.6879   -1.2184 H   0  0
  -15.7855    2.9433   -1.2668 H   0  0
  -16.9744    2.3965    0.0156 H   0  0
  -17.2822   -0.2048   -2.2131 H   0  0
  -18.8790    0.5398   -2.1647 H   0  0
  -17.9463    0.3522   -0.5989 H   0  0
  1  2  1  0
  2  3  1  0
  3 11  1  0
  3  4  1  0
  4  9  1  0
  4  5  2  0
  5  6  1  0
  6  7  2  0
  7  8  1  0
  7 28  1  0
  8  9  2  0
  9 10  1  0
 10 11  2  0
 11 12  1  0
 12 13  1  0
 13 14  1  0
 14 15  2  0
 14 16  1  0
 16 17  1  0
 17 18  1  0
 18 19  1  0
 19 20  1  0
 20 25  1  0
 20 21  1  0
 21 22  1  0
 22 23  1  0
 22 27  1  0
 23 24  1  0
 24 25  1  0
 24 26  1  0
 28 29  2  0
 28 30  2  0
 28 31  1  0
 31 32  1  0
 31 33  1  0
  1 34  1  0
  1 35  1  0
  1 36  1  0
  2 37  1  0
  2 38  1  0
  5 39  1  0
  6 40  1  0
  8 41  1  0
 12 42  1  0
 12 43  1  0
 13 44  1  0
 13 45  1  0
 16 46  1  0
 17 47  1  0
 17 48  1  0
 18 49  1  0
 18 50  1  0
 19 51  1  0
 19 52  1  0
 20 53  1  0
 21 54  1  0
 21 55  1  0
 22 56  1  0
 24 57  1  0
 25 58  1  0
 25 59  1  0
 26 60  1  0
 26 61  1  0
 26 62  1  0
 27 63  1  0
 27 64  1  0
 27 65  1  0
 32 66  1  0
 32 67  1  0
 32 68  1  0
 33 69  1  0
 33 70  1  0
 33 71  1  0
M  CHG  1  20   1
M  END
> <Name>
ZINC28940522

> <reference>
BDB50084673

> <quality>
0.735

> <status>
decoy

$$$$
ZINC16865068
  SciTegic06061311253D

 57 59  0  0  1  0            999 V2000
  -16.9625   13.9589    0.9983 C   0  0
  -16.1039   13.9119   -0.1430 O   0  0
  -15.0873   13.0110   -0.1135 C   0  0
  -14.2164   12.9141   -1.1907 C   0  0
  -13.1839   12.0010   -1.1648 C   0  0
  -13.0145   11.1731   -0.0535 C   0  0
  -13.8955   11.2700    1.0252 C   0  0
  -14.9222   12.1893    0.9937 C   0  0
  -11.9091   10.1923   -0.0218 C   0  0
  -11.8253    9.1359    0.7530 N   0  0
  -10.7332    8.5021    0.5143 N   0  0
  -10.0484    9.1194   -0.4219 C   0  0
  -10.7736   10.2145   -0.7983 N   0  0
  -10.4168   11.2053   -1.8168 C   0  0
  -10.8282   10.6996   -3.1755 C   0  0
  -11.5946   11.4339   -3.9432 C   0  0
   -8.4892    8.6233   -1.0755 S   0  0
   -8.1981    7.1301   -0.0949 C   0  0
   -6.8808    6.5161   -0.4937 C   0  0
   -6.2053    7.0369   -1.3559 O   0  0
   -6.4534    5.3884    0.1079 N   0  0
   -5.2288    4.8176   -0.2628 N   0  0
   -4.8014    3.6898    0.3388 C   0  0
   -5.4768    3.1691    1.2011 O   0  0
   -3.4841    3.0759   -0.0599 C   0  0
   -3.2381    1.8136    0.7690 C   0  0  2  0  0  0
   -3.0884    2.1983    2.2502 C   0  0
   -2.5320    0.9642    3.0185 C   0  0
   -1.2888    0.3469    1.8068 S   0  0
   -1.4057   -1.0655    1.7034 O   0  0
   -0.0252    0.9238    2.1063 O   0  0
   -1.9490    1.1158    0.2721 C   0  0
  -16.3155   14.1645    1.8638 H   0  0
  -17.3739   12.9457    1.1177 H   0  0
  -17.7594   14.7108    0.9005 H   0  0
  -14.3505   13.5668   -2.0659 H   0  0
  -12.4945   11.9248   -2.0185 H   0  0
  -13.7705   10.6137    1.8990 H   0  0
  -15.6117   12.2721    1.8468 H   0  0
   -9.3297   11.3725   -1.8024 H   0  0
  -10.9362   12.1517   -1.6057 H   0  0
  -10.4849    9.7139   -3.5226 H   0  0
  -11.9379   12.4196   -3.5961 H   0  0
  -11.8949   11.0648   -4.9350 H   0  0
   -9.0080    6.4080   -0.2754 H   0  0
   -8.1716    7.3921    0.9731 H   0  0
   -7.0270    4.9462    0.8402 H   0  0
   -4.6551    5.2598   -0.9951 H   0  0
   -2.6728    3.7964    0.1211 H   0  0
   -3.5100    2.8134   -1.1278 H   0  0
   -4.0879    1.1240    0.6580 H   0  0
   -4.0695    2.4776    2.6619 H   0  0
   -2.3860    3.0395    2.3448 H   0  0
   -2.0295    1.2750    3.9464 H   0  0
   -3.3173    0.2086    3.1681 H   0  0
   -2.1918    0.3342   -0.4628 H   0  0
   -1.2321    1.8558   -0.1130 H   0  0
  1  2  1  0
  2  3  1  0
  3  8  2  0
  3  4  1  0
  4  5  2  0
  5  6  1  0
  6  7  2  0
  6  9  1  0
  7  8  1  0
  9 13  1  0
  9 10  2  0
 10 11  1  0
 11 12  2  0
 12 13  1  0
 12 17  1  0
 13 14  1  0
 14 15  1  0
 15 16  2  0
 17 18  1  0
 18 19  1  0
 19 20  2  0
 19 21  1  0
 21 22  1  0
 22 23  1  0
 23 24  2  0
 23 25  1  0
 25 26  1  0
 26 32  1  0
 26 27  1  0
 27 28  1  0
 28 29  1  0
 29 30  2  0
 29 31  2  0
 29 32  1  0
  1 33  1  0
  1 34  1  0
  1 35  1  0
  4 36  1  0
  5 37  1  0
  7 38  1  0
  8 39  1  0
 14 40  1  0
 14 41  1  0
 15 42  1  0
 16 43  1  0
 16 44  1  0
 18 45  1  0
 18 46  1  0
 21 47  1  0
 22 48  1  0
 25 49  1  0
 25 50  1  0
 26 51  1  0
 27 52  1  0
 27 53  1  0
 28 54  1  0
 28 55  1  0
 32 56  1  0
 32 57  1  0
M  END
> <Name>
ZINC16865068

> <reference>
BDB50084673

> <quality>
0.734

> <status>
decoy

$$$$
ZINC11575027
  SciTegic06061311253D

 50 52  0  0  0  0            999 V2000
    2.2096    1.0360   -0.1318 C   0  0
    1.3356    2.0906   -0.1073 C   0  0
   -0.0219    1.7862   -0.0893 C   0  0
    0.0029    0.0023   -0.1082 S   0  0
    1.7201   -0.2338   -0.1374 C   0  0
   -1.1304    2.6611   -0.0679 C   0  0
   -0.9554    3.8628   -0.0578 O   0  0
   -2.5304    2.1034   -0.0577 C   0  0
   -3.5378    3.2547   -0.0347 C   0  0
   -4.9378    2.6971   -0.0245 C   0  0
   -5.1126    1.4970   -0.0346 O   0  0
   -5.9956    3.5320   -0.0041 N   0  0
   -7.3566    2.9898    0.0058 C   0  0
   -8.3640    4.1411    0.0288 C   0  0
   -9.7640    3.5835    0.0390 C   0  0
   -9.9381    2.3879    0.0289 O   0  0
  -10.8175    4.4150    0.0593 O   0  0
  -12.1364    3.8078    0.0681 C   0  0
  -13.1867    4.8883    0.0909 C   0  0
  -12.8561    6.0553    0.0989 O   0  0
  -14.4933    4.5579    0.1023 N   0  0
  -15.4680    5.5582    0.2184 C   0  0
  -15.2622    6.7995   -0.3680 C   0  0
  -16.2254    7.7876   -0.2532 C   0  0
  -17.4002    7.5339    0.4512 C   0  0
  -17.6026    6.2942    1.0352 C   0  0
  -16.6427    5.3059    0.9152 C   0  0
  -16.9033    3.7509    1.6418 Cl  0  0
  -18.1786    8.6559    0.4189 O   0  0
  -17.2941    9.7266    0.0392 C   0  0
  -16.2680    9.0676   -0.7263 O   0  0
    3.2951    1.2136   -0.1468 H   0  0
    1.6912    3.1315   -0.1021 H   0  0
    2.2790   -1.1811   -0.1560 H   0  0
   -2.6897    1.4955   -0.9605 H   0  0
   -2.6702    1.4769    0.8356 H   0  0
   -3.4002    3.8817   -0.9280 H   0  0
   -3.3793    3.8628    0.8681 H   0  0
   -5.8472    4.5512    0.0045 H   0  0
   -7.5159    2.3819   -0.8970 H   0  0
   -7.4964    2.3633    0.8991 H   0  0
   -8.2264    4.7681   -0.8645 H   0  0
   -8.2055    4.7492    0.9316 H   0  0
  -12.2437    3.1743    0.9609 H   0  0
  -12.2632    3.1930   -0.8352 H   0  0
  -14.7755    3.5703    0.0257 H   0  0
  -14.3340    6.9981   -0.9238 H   0  0
  -18.5283    6.0956    1.5953 H   0  0
  -17.8271   10.4557   -0.5887 H   0  0
  -16.8581   10.1962    0.9332 H   0  0
  1  5  2  0
  1  2  1  0
  2  3  2  0
  3  4  1  0
  3  6  1  0
  4  5  1  0
  6  7  2  0
  6  8  1  0
  8  9  1  0
  9 10  1  0
 10 11  2  0
 10 12  1  0
 12 13  1  0
 13 14  1  0
 14 15  1  0
 15 16  2  0
 15 17  1  0
 17 18  1  0
 18 19  1  0
 19 20  2  0
 19 21  1  0
 21 22  1  0
 22 27  2  0
 22 23  1  0
 23 24  2  0
 24 31  1  0
 24 25  1  0
 25 26  2  0
 25 29  1  0
 26 27  1  0
 27 28  1  0
 29 30  1  0
 30 31  1  0
  1 32  1  0
  2 33  1  0
  5 34  1  0
  8 35  1  0
  8 36  1  0
  9 37  1  0
  9 38  1  0
 12 39  1  0
 13 40  1  0
 13 41  1  0
 14 42  1  0
 14 43  1  0
 18 44  1  0
 18 45  1  0
 21 46  1  0
 23 47  1  0
 26 48  1  0
 30 49  1  0
 30 50  1  0
M  END
> <Name>
ZINC11575027

> <reference>
BDB50084673

> <quality>
0.734

> <status>
decoy

$$$$
ZINC31181834
  SciTegic06061311253D

 56 59  0  0  1  0            999 V2000
   -2.6230   -0.6093   -0.1712 C   0  0
   -3.0737   -1.2503   -1.3088 C   0  0
   -4.4266   -1.5239   -1.4598 C   0  0
   -5.3225   -1.1517   -0.4658 C   0  0
   -4.8655   -0.5112    0.6690 C   0  0
   -3.5180   -0.2355    0.8140 C   0  0
   -6.0013   -0.0381    1.9303 S   0  0
   -7.2725    0.0843    1.3070 O   0  0
   -5.3954    1.0323    2.6417 O   0  0
   -6.1135   -1.3066    2.9890 N   0  0
   -4.9460   -1.7078    3.7778 C   0  0  2  0  0  0
   -4.7854   -3.1958    4.0953 C   0  0
   -5.1948   -2.2180    5.1986 C   0  0
   -4.8864   -2.1735   -2.6107 N   0  0
   -6.1232   -1.9168   -3.0807 C   0  0
   -6.8046   -1.0599   -2.5588 O   0  0
   -6.6594   -2.6946   -4.2548 C   0  0
   -7.9581   -2.1391   -4.6582 N   0  0
   -8.7090   -3.0983   -5.4792 C   0  0
  -10.1463   -2.6566   -5.5796 C   0  0
  -10.6868   -1.9631   -6.5976 C   0  0
  -12.0510   -1.7681   -6.2816 C   0  0
  -12.2606   -2.3471   -5.0856 C   0  0
  -11.1034   -2.8836   -4.6652 O   0  0
   -7.7880   -0.8620   -5.3640 C   0  0  1  0  0  0
   -7.5216   -1.1337   -6.8539 C   0  0
   -7.6582    0.2112   -7.6234 C   0  0
   -9.1282    0.9343   -6.7802 S   0  0
  -10.2991    0.5679   -7.4972 O   0  0
   -8.8758    2.3055   -6.5060 O   0  0
   -9.0712   -0.0116   -5.2040 C   0  0
   -1.5508   -0.3960   -0.0490 H   0  0
   -2.3616   -1.5437   -2.0942 H   0  0
   -6.3949   -1.3669   -0.5824 H   0  0
   -3.1576    0.2823    1.7151 H   0  0
   -7.0041   -1.8135    3.0929 H   0  0
   -4.3053   -0.9340    3.3297 H   0  0
   -3.7257   -3.4783    4.1807 H   0  0
   -5.6453   -3.7798    3.7354 H   0  0
   -6.2700   -2.2881    5.4199 H   0  0
   -4.3504   -1.9853    5.8641 H   0  0
   -4.2797   -2.8478   -3.0987 H   0  0
   -5.9535   -2.6230   -5.0954 H   0  0
   -6.7851   -3.7497   -3.9704 H   0  0
   -8.2685   -3.1430   -6.4862 H   0  0
   -8.6639   -4.0944   -5.0147 H   0  0
  -10.1671   -1.6146   -7.5023 H   0  0
  -12.7977   -1.2436   -6.8959 H   0  0
  -13.2175   -2.3762   -4.5438 H   0  0
   -6.9350   -0.3131   -4.9384 H   0  0
   -6.5036   -1.5304   -6.9815 H   0  0
   -8.2587   -1.8547   -7.2372 H   0  0
   -6.7779    0.8490   -7.4556 H   0  0
   -7.8843    0.0342   -8.6853 H   0  0
   -8.9728    0.6818   -4.3558 H   0  0
   -9.9565   -0.6596   -5.1249 H   0  0
  1  6  2  0
  1  2  1  0
  2  3  2  0
  3  4  1  0
  3 14  1  0
  4  5  2  0
  5  6  1  0
  5  7  1  0
  7  8  2  0
  7  9  2  0
  7 10  1  0
 10 11  1  0
 11 13  1  0
 11 12  1  0
 12 13  1  0
 14 15  1  0
 15 16  2  0
 15 17  1  0
 17 18  1  0
 18 19  1  0
 18 25  1  0
 19 20  1  0
 20 24  1  0
 20 21  2  0
 21 22  1  0
 22 23  2  0
 23 24  1  0
 25 31  1  0
 25 26  1  0
 26 27  1  0
 27 28  1  0
 28 29  2  0
 28 30  2  0
 28 31  1  0
  1 32  1  0
  2 33  1  0
  4 34  1  0
  6 35  1  0
 10 36  1  0
 11 37  1  0
 12 38  1  0
 12 39  1  0
 13 40  1  0
 13 41  1  0
 14 42  1  0
 17 43  1  0
 17 44  1  0
 19 45  1  0
 19 46  1  0
 21 47  1  0
 22 48  1  0
 23 49  1  0
 25 50  1  0
 26 51  1  0
 26 52  1  0
 27 53  1  0
 27 54  1  0
 31 55  1  0
 31 56  1  0
M  END
> <Name>
ZINC31181834

> <reference>
BDB50084673

> <quality>
0.732

> <status>
decoy

$$$$
ZINC28719428
  SciTegic06061311253D

 52 54  0  0  0  0            999 V2000
   -1.7010    4.8831   -5.1552 C   0  0
   -1.6785    4.0903   -3.8738 C   0  0
   -0.9293    4.5298   -2.8018 C   0  0
   -0.9114    3.8057   -1.6232 C   0  0
   -1.6354    2.6314   -1.5145 C   0  0
   -2.3886    2.1809   -2.5786 C   0  0
   -2.4152    2.9096   -3.7690 C   0  0
   -3.2199    2.4325   -4.9138 C   0  0
   -3.3330    3.1237   -5.9073 O   0  0
   -3.8279    1.2310   -4.8559 N   0  0
   -4.6253    0.7582   -5.9903 C   0  0
   -5.1924   -0.6016   -5.6736 C   0  0
   -4.6283   -1.7536   -5.9298 N   0  0
   -5.3796   -2.7177   -5.5271 N   0  0
   -6.4837   -2.2228   -4.9919 C   0  0
   -6.3873   -0.8553   -5.0743 N   0  0
   -7.3890   -0.0617   -4.5979 C   0  0
   -8.4889   -0.6083   -4.0387 C   0  0
   -8.6166   -2.0045   -3.9400 C   0  0
   -7.6253   -2.8079   -4.4111 C   0  0
   -9.5863    0.2833   -3.5173 C   0  0  1  0  0  0
  -10.6145   -0.5038   -2.9876 F   0  0
   -9.0743    1.1166   -2.5170 F   0  0
  -10.0888    1.0647   -4.5633 F   0  0
   -1.6009    1.7135   -0.0109 S   0  0
   -2.7961    0.9457    0.0237 O   0  0
   -1.2550    2.6312    1.0174 O   0  0
   -0.3489    0.6355   -0.1240 N   0  0
    1.0304    1.1214   -0.2117 C   0  0
    1.9962   -0.0334    0.0616 C   0  0
    1.8736   -1.0118   -0.9726 O   0  0
    2.7374   -2.1388   -0.8119 C   0  0
   -2.7642    5.0974   -5.3388 H   0  0
   -1.3737    4.1771   -5.9326 H   0  0
   -1.0858    5.7945   -5.1272 H   0  0
   -0.3449    5.4581   -2.8845 H   0  0
   -0.3191    4.1649   -0.7687 H   0  0
   -2.9670    1.2495   -2.4894 H   0  0
   -3.7319    0.6453   -4.0141 H   0  0
   -3.9883    0.6898   -6.8845 H   0  0
   -5.4483    1.4631   -6.1793 H   0  0
   -7.2997    1.0323   -4.6700 H   0  0
   -9.5148   -2.4458   -3.4835 H   0  0
   -7.7143   -3.9019   -4.3392 H   0  0
   -0.5399   -0.3766   -0.1327 H   0  0
    1.1888    1.9150    0.5333 H   0  0
    1.2148    1.5222   -1.2194 H   0  0
    3.0275    0.3485    0.0840 H   0  0
    1.7544   -0.4934    1.0311 H   0  0
    2.5051   -2.5987    0.1600 H   0  0
    3.7707   -1.7628   -0.7808 H   0  0
    2.6103   -2.8651   -1.6282 H   0  0
  1  2  1  0
  2  7  2  0
  2  3  1  0
  3  4  2  0
  4  5  1  0
  5  6  2  0
  5 25  1  0
  6  7  1  0
  7  8  1  0
  8  9  2  0
  8 10  1  0
 10 11  1  0
 11 12  1  0
 12 16  1  0
 12 13  2  0
 13 14  1  0
 14 15  2  0
 15 20  1  0
 15 16  1  0
 16 17  1  0
 17 18  2  0
 18 19  1  0
 18 21  1  0
 19 20  2  0
 21 22  1  0
 21 23  1  0
 21 24  1  0
 25 26  2  0
 25 27  2  0
 25 28  1  0
 28 29  1  0
 29 30  1  0
 30 31  1  0
 31 32  1  0
  1 33  1  0
  1 34  1  0
  1 35  1  0
  3 36  1  0
  4 37  1  0
  6 38  1  0
 10 39  1  0
 11 40  1  0
 11 41  1  0
 17 42  1  0
 19 43  1  0
 20 44  1  0
 28 45  1  0
 29 46  1  0
 29 47  1  0
 30 48  1  0
 30 49  1  0
 32 50  1  0
 32 51  1  0
 32 52  1  0
M  END
> <Name>
ZINC28719428

> <reference>
BDB50084673

> <quality>
0.731

> <status>
decoy

$$$$
ZINC14964923
  SciTegic06061311253D

 67 69  0  0  0  0            999 V2000
    4.4168   -1.2510    3.4754 C   0  0
    3.9404   -0.7585    2.1074 C   0  0
    4.6152    1.5266    2.5381 C   0  0
    4.0782    2.8364    3.1186 C   0  0
    2.8102    1.0685    0.9906 C   0  0
    1.4068    0.4609    0.9454 C   0  0
    0.6514    1.0115   -0.2659 C   0  0
   -0.7690    0.5085   -0.2434 C   0  0
   -1.7764    1.3693   -0.2056 C   0  0
   -3.1640    0.8776   -0.0722 C   0  0
   -3.4104   -0.4836    0.1115 C   0  0
   -4.7075   -0.9353    0.2416 C   0  0
   -5.7634   -0.0434    0.1779 C   0  0
   -5.5261    1.3064   -0.0097 C   0  0
   -4.2331    1.7718   -0.1350 C   0  0
   -3.9330    3.4914   -0.3745 S   0  0
   -5.2056    4.1199   -0.4446 O   0  0
   -2.9487    3.8685    0.5785 O   0  0
   -3.2371    3.6638   -1.8672 N   0  0
   -3.9208    3.2529   -3.0035 C   0  0
   -5.3012    3.3934   -3.0806 C   0  0
   -5.9689    2.9859   -4.2131 C   0  0
   -5.2843    2.4206   -5.2871 C   0  0
   -3.9215    2.2731   -5.2288 C   0  0
   -3.2261    2.6872   -4.0809 C   0  0
   -1.7638    2.5262   -4.0095 C   0  0
   -1.2865    1.5034   -3.5591 O   0  0
   -3.1180    1.6860   -6.3595 C   0  0
   -4.0218    0.9113   -7.3163 C   0  0
   -5.1989    1.8136   -7.7054 C   0  0
   -6.0954    1.9890   -6.4816 C   0  0
    3.4728    0.6374    2.2395 N   0  3
   -0.9552    3.5131   -4.4435 O   0  5
    3.5868   -1.2104    4.1961 H   0  0
    5.2449   -0.6204    3.8311 H   0  0
    4.7665   -2.2900    3.3848 H   0  0
    3.1129   -1.3916    1.7546 H   0  0
    4.7733   -0.8011    1.3901 H   0  0
    5.1718    1.7345    1.6124 H   0  0
    5.2773    1.0417    3.2705 H   0  0
    3.5209    2.6341    4.0451 H   0  0
    3.4159    3.3251    2.3888 H   0  0
    4.9224    3.5047    3.3439 H   0  0
    2.7386    2.1660    0.9719 H   0  0
    3.3917    0.7178    0.1252 H   0  0
    1.4833   -0.6333    0.8628 H   0  0
    0.8632    0.7220    1.8653 H   0  0
    1.1439    0.6755   -1.1903 H   0  0
    0.6511    2.1109   -0.2293 H   0  0
   -0.9698   -0.5729   -0.2583 H   0  0
   -1.5798    2.4494   -0.2735 H   0  0
   -2.5723   -1.1949    0.1525 H   0  0
   -4.9026   -2.0067    0.3963 H   0  0
   -6.7960   -0.4093    0.2769 H   0  0
   -6.3699    2.0103   -0.0591 H   0  0
   -2.2970    4.0759   -1.9526 H   0  0
   -5.8589    3.8292   -2.2386 H   0  0
   -7.0605    3.1084   -4.2713 H   0  0
   -2.3552    1.0070   -5.9508 H   0  0
   -2.6172    2.4966   -6.9091 H   0  0
   -3.4552    0.6350   -8.2177 H   0  0
   -4.3999    0.0065   -6.8180 H   0  0
   -5.7725    1.3444   -8.5183 H   0  0
   -4.8211    2.7945   -8.0295 H   0  0
   -6.8599    2.7498   -6.6976 H   0  0
   -6.5943    1.0347   -6.2570 H   0  0
    2.7954    0.6915    3.0135 H   0  0
  1  2  1  0
  2 32  1  0
  3  4  1  0
  3 32  1  0
  5  6  1  0
  5 32  1  0
  6  7  1  0
  7  8  1  0
  8  9  2  0
  9 10  1  0
 10 15  2  0
 10 11  1  0
 11 12  2  0
 12 13  1  0
 13 14  2  0
 14 15  1  0
 15 16  1  0
 16 17  2  0
 16 18  2  0
 16 19  1  0
 19 20  1  0
 20 25  2  0
 20 21  1  0
 21 22  2  0
 22 23  1  0
 23 31  1  0
 23 24  2  0
 24 25  1  0
 24 28  1  0
 25 26  1  0
 26 27  2  0
 26 33  1  0
 28 29  1  0
 29 30  1  0
 30 31  1  0
  1 34  1  0
  1 35  1  0
  1 36  1  0
  2 37  1  0
  2 38  1  0
  3 39  1  0
  3 40  1  0
  4 41  1  0
  4 42  1  0
  4 43  1  0
  5 44  1  0
  5 45  1  0
  6 46  1  0
  6 47  1  0
  7 48  1  0
  7 49  1  0
  8 50  1  0
  9 51  1  0
 11 52  1  0
 12 53  1  0
 13 54  1  0
 14 55  1  0
 19 56  1  0
 21 57  1  0
 22 58  1  0
 28 59  1  0
 28 60  1  0
 29 61  1  0
 29 62  1  0
 30 63  1  0
 30 64  1  0
 31 65  1  0
 31 66  1  0
 32 67  1  0
M  CHG  2  32   1  33  -1
M  END
> <Name>
ZINC14964923

> <reference>
BDB50084673

> <quality>
0.730

> <status>
decoy

$$$$
ZINC19800812
  SciTegic06061311253D

 44 45  0  0  0  0            999 V2000
   -7.1046    1.6649    1.9083 C   0  0
   -5.5995    1.8486    2.1131 C   0  0
   -4.9075    1.9443    0.7519 C   0  0
   -3.4025    2.1280    0.9568 C   0  0
   -2.7105    2.2238   -0.4044 C   0  0
   -1.2693    2.3997   -0.2083 N   0  0
   -0.3178    1.3933   -0.1059 C   0  0
   -0.3632   -0.0111   -0.1459 C   0  0
   -1.4258   -0.5888   -0.2958 O   0  0
    0.7818   -0.7127   -0.0170 N   0  0
    1.9611   -0.0891    0.1481 C   0  0
    2.9730   -0.7541    0.2605 O   0  0
    2.0495    1.2536    0.1916 N   0  0
    0.9077    2.0287    0.0658 C   0  0
    0.6829    3.3432    0.0691 N   0  0
   -0.6043    3.5805   -0.0892 C   0  0
   -1.3462    5.1777   -0.1455 S   0  0
    0.1224    6.2141    0.0672 C   0  0
   -0.2808    7.6661    0.0507 C   0  0
   -0.0959    8.4102    1.1148 C   0  0
    0.6746    7.8661    2.2901 C   0  0
   -0.7388   10.0218    1.1695 Cl  0  0
    3.3538    1.8958    0.3725 C   0  0
   -7.2883    0.7419    1.3387 H   0  0
   -7.5077    2.5243    1.3525 H   0  0
   -7.6028    1.5960    2.8866 H   0  0
   -5.4168    2.7719    2.6824 H   0  0
   -5.1964    0.9892    2.6689 H   0  0
   -5.0895    1.0211    0.1822 H   0  0
   -5.3086    2.8040    0.1950 H   0  0
   -3.2198    3.0513    1.5262 H   0  0
   -2.9994    1.2686    1.5125 H   0  0
   -2.8925    1.3006   -0.9742 H   0  0
   -3.1116    3.0835   -0.9612 H   0  0
    0.7519   -1.7419   -0.0455 H   0  0
    0.8302    6.0215   -0.7525 H   0  0
    0.6017    5.9781    1.0287 H   0  0
   -0.7302    8.1019   -0.8538 H   0  0
    1.6523    7.5697    1.8823 H   0  0
    0.1469    6.9456    2.5803 H   0  0
    0.7663    8.5776    3.1240 H   0  0
    3.9771    1.5163   -0.4506 H   0  0
    3.7542    1.4741    1.3062 H   0  0
    3.3101    2.9947    0.3934 H   0  0
  1  2  1  0
  2  3  1  0
  3  4  1  0
  4  5  1  0
  5  6  1  0
  6 16  1  0
  6  7  1  0
  7 14  2  0
  7  8  1  0
  8  9  2  0
  8 10  1  0
 10 11  1  0
 11 12  2  0
 11 13  1  0
 13 14  1  0
 13 23  1  0
 14 15  1  0
 15 16  2  0
 16 17  1  0
 17 18  1  0
 18 19  1  0
 19 20  2  0
 20 21  1  0
 20 22  1  0
  1 24  1  0
  1 25  1  0
  1 26  1  0
  2 27  1  0
  2 28  1  0
  3 29  1  0
  3 30  1  0
  4 31  1  0
  4 32  1  0
  5 33  1  0
  5 34  1  0
 10 35  1  0
 18 36  1  0
 18 37  1  0
 19 38  1  0
 21 39  1  0
 21 40  1  0
 21 41  1  0
 23 42  1  0
 23 43  1  0
 23 44  1  0
M  END
> <Name>
ZINC19800812

> <reference>
BDB50272061

> <quality>
0.845

> <status>
decoy

$$$$
ZINC08749122
  SciTegic06061311253D

 41 42  0  0  1  0            999 V2000
   -5.6282    1.6576   10.3683 C   0  0
   -4.7937    0.4427    9.9578 C   0  0
   -5.3437   -0.1364    8.6528 C   0  0
   -4.3565   -1.5736    8.1671 S   0  0
   -5.1858   -2.0260    6.6798 C   0  0
   -6.2219   -2.8974    6.7075 N   0  5
   -6.6599   -2.9871    5.0549 S   0  0
   -5.4662   -1.8959    4.4273 C   0  0
   -5.2554   -1.5133    3.1572 N   0  0
   -4.2864   -0.6564    2.8763 C   0  0
   -3.5865   -0.2152    3.7688 O   0  0
   -4.0498   -0.2272    1.4512 C   0  0
   -3.2664    1.9715    2.0952 C   0  0
   -2.5138    0.9782    0.0193 C   0  0
   -1.2196    1.7503    0.0173 C   0  0
   -0.0126    1.0758    0.0080 C   0  0
    1.1753    1.7826    0.0004 C   0  0
    1.1577    3.1647    0.0075 C   0  0
   -0.0501    3.8410    0.0227 C   0  0
   -1.2395    3.1318    0.0307 C   0  0
   -0.0684    5.1919    0.0292 F   0  0
   -4.8126   -1.5289    5.5380 N   0  0
   -2.9055    0.7079    1.4186 N   0  0
   -6.6746    1.3521   10.5159 H   0  0
   -5.5779    2.4220    9.5789 H   0  0
   -5.2333    2.0745   11.3065 H   0  0
   -3.7476    0.7492    9.8102 H   0  0
   -4.8440   -0.3217   10.7472 H   0  0
   -6.3897   -0.4436    8.7998 H   0  0
   -5.2932    0.6263    7.8618 H   0  0
   -3.8221   -1.1088    0.8340 H   0  0
   -4.9474    0.2766    1.0633 H   0  0
   -3.5371    1.7600    3.1402 H   0  0
   -4.1261    2.4264    1.5814 H   0  0
   -2.4123    2.6642    2.0686 H   0  0
   -3.2976    1.5718   -0.4740 H   0  0
   -2.3768    0.0262   -0.5145 H   0  0
    0.0023   -0.0241    0.0066 H   0  0
    2.1349    1.2450   -0.0113 H   0  0
    2.1031    3.7270    0.0011 H   0  0
   -2.1998    3.6681    0.0477 H   0  0
  1  2  1  0
  2  3  1  0
  3  4  1  0
  4  5  1  0
  5 22  2  0
  5  6  1  0
  6  7  1  0
  7  8  1  0
  8  9  2  0
  8 22  1  0
  9 10  1  0
 10 11  2  0
 10 12  1  0
 12 23  1  0
 13 23  1  0
 14 15  1  0
 14 23  1  0
 15 20  2  0
 15 16  1  0
 16 17  2  0
 17 18  1  0
 18 19  2  0
 19 20  1  0
 19 21  1  0
  1 24  1  0
  1 25  1  0
  1 26  1  0
  2 27  1  0
  2 28  1  0
  3 29  1  0
  3 30  1  0
 12 31  1  0
 12 32  1  0
 13 33  1  0
 13 34  1  0
 13 35  1  0
 14 36  1  0
 14 37  1  0
 16 38  1  0
 17 39  1  0
 18 40  1  0
 20 41  1  0
M  CHG  1   6  -1
M  END
> <Name>
ZINC08749122

> <reference>
BDB50272061

> <quality>
0.845

> <status>
decoy

$$$$
ZINC24498069
  SciTegic06061311253D

 43 45  0  0  1  0            999 V2000
   -4.8306    5.4890    1.3041 C   0  0
   -4.0960    5.9775    0.0540 C   0  0  1  0  0  0
   -4.8141    5.5206   -1.1470 C   0  0
   -5.3683    5.1680   -2.0739 N   0  0
   -4.0367    7.5063    0.0620 C   0  0  2  0  0  0
   -4.6060    8.2290    1.2845 C   0  0
   -5.3608    8.2653   -0.0459 C   0  0
   -2.7348    5.4360    0.0446 N   0  0
   -2.5401    4.1024    0.0364 C   0  0
   -3.4918    3.3506    0.0368 O   0  0
   -1.1398    3.5454    0.0267 C   0  0
   -1.1953    2.1175    0.0192 O   0  0
   -0.0178    1.4588    0.0101 C   0  0
    1.0273    2.0813    0.0034 O   0  0
    0.0021   -0.0041    0.0020 C   0  0
    1.0937   -0.8617   -0.0187 C   0  0
    0.8689   -2.2090   -0.0177 C   0  0
   -0.4390   -2.6671   -0.0083 C   0  0
   -1.3713   -1.1447    0.0084 S   0  0
   -0.9350   -4.0592   -0.0119 C   0  0
   -0.0332   -5.1246   -0.0321 C   0  0
   -0.5029   -6.4218   -0.0305 C   0  0
   -1.8644   -6.6678   -0.0197 C   0  0
   -2.7637   -5.6164   -0.0050 C   0  0
   -2.3074   -4.3145   -0.0011 C   0  0
   -4.8735    4.3898    1.2994 H   0  0
   -5.8528    5.8952    1.3122 H   0  0
   -4.2945    5.8301    2.2020 H   0  0
   -3.0799    7.5294   -0.4802 H   0  0
   -4.0800    9.1761    1.4748 H   0  0
   -5.0684    7.5236    1.9906 H   0  0
   -6.2209    7.5796   -0.0395 H   0  0
   -5.2313    9.2312   -0.5561 H   0  0
   -1.9266    6.0745    0.0443 H   0  0
   -0.6118    3.8960   -0.8723 H   0  0
   -0.6023    3.8860    0.9239 H   0  0
    2.1192   -0.4641   -0.0356 H   0  0
    1.7105   -2.9173   -0.0242 H   0  0
    1.0494   -4.9303   -0.0493 H   0  0
    0.2066   -7.2624   -0.0378 H   0  0
   -2.2336   -7.7040   -0.0228 H   0  0
   -3.8448   -5.8190    0.0036 H   0  0
   -3.0234   -3.4795    0.0105 H   0  0
  1  2  1  0
  2  3  1  0
  2  5  1  0
  2  8  1  0
  3  4  3  0
  5  7  1  0
  5  6  1  0
  6  7  1  0
  8  9  1  0
  9 10  2  0
  9 11  1  0
 11 12  1  0
 12 13  1  0
 13 14  2  0
 13 15  1  0
 15 19  1  0
 15 16  2  0
 16 17  1  0
 17 18  2  0
 18 19  1  0
 18 20  1  0
 20 25  2  0
 20 21  1  0
 21 22  2  0
 22 23  1  0
 23 24  2  0
 24 25  1  0
  1 26  1  0
  1 27  1  0
  1 28  1  0
  5 29  1  0
  6 30  1  0
  6 31  1  0
  7 32  1  0
  7 33  1  0
  8 34  1  0
 11 35  1  0
 11 36  1  0
 16 37  1  0
 17 38  1  0
 21 39  1  0
 22 40  1  0
 23 41  1  0
 24 42  1  0
 25 43  1  0
M  END
> <Name>
ZINC24498069

> <reference>
BDB50272061

> <quality>
0.797

> <status>
decoy

$$$$
ZINC26770264
  SciTegic06061311253D

 42 44  0  0  0  0            999 V2000
   -7.6472    8.1993    0.1180 C   0  0
   -8.2636    6.9100    0.1163 O   0  0
   -7.4368    5.8304    0.1023 C   0  0
   -6.0662    6.0097    0.0904 C   0  0
   -5.2196    4.8981    0.0765 C   0  0
   -5.7629    3.6107    0.0688 C   0  0
   -7.1312    3.4400    0.0865 C   0  0
   -7.9712    4.5439    0.1003 C   0  0
   -9.3195    4.3698    0.1116 O   0  0
   -9.8000    3.0240    0.1088 C   0  0
  -11.3069    3.0285    0.1224 C   0  0
  -11.9873    3.0186    1.3257 C   0  0
  -13.3695    3.0281    1.3382 C   0  0
  -14.0715    3.0365    0.1473 C   0  0
  -13.3911    3.0406   -1.0560 C   0  0
  -12.0088    3.0369   -1.0685 C   0  0
   -3.7573    5.0830    0.0639 C   0  0
   -2.9720    4.0487    0.0509 N   0  0
   -1.5822    4.2245    0.0389 N   0  0
   -0.7490    3.1271    0.0252 C   0  0
    0.6361    3.1382    0.0123 C   0  0
    1.0390    1.8368    0.0020 N   0  0
   -0.0126    1.0758    0.0080 C   0  0
   -1.1213    1.8331    0.0168 O   0  0
    1.4813    4.2942    0.0107 C   0  0
    2.1517    5.2113    0.0094 N   0  0
   -7.0088    8.2380   -0.7769 H   0  0
   -6.9921    8.2277    1.0012 H   0  0
   -8.3788    9.0207    0.1296 H   0  0
   -5.6430    7.0250    0.0919 H   0  0
   -5.0993    2.7336    0.0486 H   0  0
   -7.5576    2.4260    0.0897 H   0  0
   -9.4276    2.4987    1.0006 H   0  0
   -9.4436    2.5091   -0.7956 H   0  0
  -11.4288    3.0032    2.2732 H   0  0
  -13.9109    3.0290    2.2958 H   0  0
  -15.1714    3.0399    0.1572 H   0  0
  -13.9497    3.0468   -2.0036 H   0  0
  -11.4674    3.0406   -2.0260 H   0  0
   -3.3311    6.0971    0.0655 H   0  0
   -1.1832    5.1741    0.0403 H   0  0
    0.0023   -0.0241    0.0062 H   0  0
  1  2  1  0
  2  3  1  0
  3  8  2  0
  3  4  1  0
  4  5  2  0
  5  6  1  0
  5 17  1  0
  6  7  2  0
  7  8  1  0
  8  9  1  0
  9 10  1  0
 10 11  1  0
 11 16  2  0
 11 12  1  0
 12 13  2  0
 13 14  1  0
 14 15  2  0
 15 16  1  0
 17 18  2  0
 18 19  1  0
 19 20  1  0
 20 24  1  0
 20 21  2  0
 21 22  1  0
 21 25  1  0
 22 23  2  0
 23 24  1  0
 25 26  3  0
  1 27  1  0
  1 28  1  0
  1 29  1  0
  4 30  1  0
  6 31  1  0
  7 32  1  0
 10 33  1  0
 10 34  1  0
 12 35  1  0
 13 36  1  0
 14 37  1  0
 15 38  1  0
 16 39  1  0
 17 40  1  0
 19 41  1  0
 23 42  1  0
M  END
> <Name>
ZINC26770264

> <reference>
BDB50272061

> <quality>
0.789

> <status>
decoy

$$$$
ZINC20912601
  SciTegic06061311253D

 49 51  0  0  1  0            999 V2000
   -0.4854    7.4180    5.2297 C   0  0
   -0.9828    6.3254    4.3186 C   0  0
   -0.6778    4.9965    4.5716 C   0  0
   -1.1519    4.0219    3.7144 C   0  0
   -1.8898    4.3433    2.6696 N   0  0
   -2.1951    5.5963    2.3954 C   0  0
   -1.7565    6.6249    3.2080 C   0  0
   -3.0372    5.9102    1.1857 C   0  0
   -2.3830    5.3104   -0.0606 C   0  0  2  0  0  0
   -3.1693    5.7336   -1.3030 C   0  0
   -2.3830    3.8491    0.0431 N   0  0
   -3.6500    3.1232    0.1619 C   0  0
   -1.1840    3.1531    0.0289 C   0  0
   -1.1986    1.7599    0.0172 C   0  0
   -0.0126    1.0758    0.0080 C   0  0
    1.1831    1.8095    0.0005 C   0  0
    1.1227    3.2032    0.0081 C   0  0
   -0.0400    3.8224    0.0216 N   0  0
    2.4865    1.1166   -0.0157 C   0  0
    3.6816    1.6821   -0.0240 N   0  0
    4.5594    0.6671   -0.0374 C   0  0
    3.8799   -0.4416   -0.0365 N   0  0
    2.6894   -0.2103   -0.0188 O   0  0
    6.0614    0.7900   -0.0504 C   0  0
    6.5483    0.8218    1.2927 O   0  0
    7.9691    0.9373    1.3932 C   0  0
   -1.3935    7.9498    5.5498 H   0  0
    0.0711    8.1001    4.5701 H   0  0
    0.1180    7.0595    6.0767 H   0  0
   -0.0662    4.7217    5.4436 H   0  0
   -0.9111    2.9658    3.9057 H   0  0
   -2.0181    7.6679    2.9763 H   0  0
   -4.0409    5.4794    1.3157 H   0  0
   -3.1187    7.0008    1.0673 H   0  0
   -1.3473    5.6722   -0.1413 H   0  0
   -3.1696    6.8308   -1.3820 H   0  0
   -4.2051    5.3720   -1.2235 H   0  0
   -2.6995    5.3027   -2.1995 H   0  0
   -4.2356    3.4327   -0.7163 H   0  0
   -4.1421    3.5576    1.0446 H   0  0
   -3.5416    2.0309    0.2337 H   0  0
   -2.1540    1.2147    0.0154 H   0  0
    0.0023   -0.0241    0.0065 H   0  0
    2.0533    3.7897    0.0028 H   0  0
    6.4955   -0.0728   -0.5769 H   0  0
    6.3501    1.7176   -0.5663 H   0  0
    8.2645    1.8599    0.8721 H   0  0
    8.4098    0.0811    0.8615 H   0  0
    8.2997    0.9581    2.4421 H   0  0
  1  2  1  0
  2  7  2  0
  2  3  1  0
  3  4  2  0
  4  5  1  0
  5  6  2  0
  6  7  1  0
  6  8  1  0
  8  9  1  0
  9 10  1  0
  9 11  1  0
 11 12  1  0
 11 13  1  0
 13 18  2  0
 13 14  1  0
 14 15  2  0
 15 16  1  0
 16 17  2  0
 16 19  1  0
 17 18  1  0
 19 23  1  0
 19 20  2  0
 20 21  1  0
 21 22  2  0
 21 24  1  0
 22 23  1  0
 24 25  1  0
 25 26  1  0
  1 27  1  0
  1 28  1  0
  1 29  1  0
  3 30  1  0
  4 31  1  0
  7 32  1  0
  8 33  1  0
  8 34  1  0
  9 35  1  0
 10 36  1  0
 10 37  1  0
 10 38  1  0
 12 39  1  0
 12 40  1  0
 12 41  1  0
 14 42  1  0
 15 43  1  0
 17 44  1  0
 24 45  1  0
 24 46  1  0
 26 47  1  0
 26 48  1  0
 26 49  1  0
M  END
> <Name>
ZINC20912601

> <reference>
BDB50272061

> <quality>
0.787

> <status>
decoy

$$$$
ZINC07349081
  SciTegic06061311253D

 41 43  0  0  1  0            999 V2000
    0.2303    8.5409    0.0503 C   0  0
    0.2250    9.9223    0.0526 C   0  0
   -0.9753   10.6104    0.0680 C   0  0
   -2.1725    9.9166    0.0757 C   0  0
   -2.1713    8.5352    0.0681 C   0  0
   -0.9689    7.8436    0.0527 C   0  0
   -0.9658    6.4844    0.0457 O   0  0
    0.3089    5.8387    0.0298 C   0  0
    0.1120    4.3214    0.0240 C   0  0
    1.7265    3.5035    0.0039 S   0  0
    1.2153    1.8173    0.0002 C   0  0
   -0.0169    1.3975    0.0097 N   0  0
    0.0021   -0.0041    0.0020 N   0  0
    1.2946   -0.3901   -0.0124 C   0  0
    1.7029   -1.5380   -0.0225 O   0  0
    2.0524    0.7246   -0.0136 N   0  0
    3.5167    0.7662   -0.0281 C   0  0
    4.0120    0.7883   -1.4756 C   0  0  1  0  0  0
    5.5607    0.7605   -1.5146 C   0  0
    5.8093    0.1503   -2.9209 C   0  0
    4.6237   -0.8274   -3.0681 C   0  0
    3.5981   -0.4035   -2.1624 O   0  0
   -0.9793   12.3464    0.0770 Cl  0  0
    1.1848    7.9942    0.0466 H   0  0
    1.1757   10.4756    0.0422 H   0  0
   -3.1258   10.4654    0.0879 H   0  0
   -3.1232    7.9840    0.0743 H   0  0
    0.8613    6.1396   -0.8726 H   0  0
    0.8800    6.1301    0.9236 H   0  0
   -0.4400    4.0197    0.9264 H   0  0
   -0.4580    4.0279   -0.8699 H   0  0
   -0.8197   -0.6251    0.0065 H   0  0
    3.8631    1.6719    0.4913 H   0  0
    3.9150   -0.1236    0.4814 H   0  0
    3.6035    1.6968   -1.9422 H   0  0
    5.9653    1.7821   -1.4624 H   0  0
    5.9543    0.0947   -0.7324 H   0  0
    6.7618   -0.3997   -2.9369 H   0  0
    5.7567    0.9332   -3.6919 H   0  0
    4.9482   -1.8465   -2.8109 H   0  0
    4.2439   -0.7968   -4.1000 H   0  0
  1  6  2  0
  1  2  1  0
  2  3  2  0
  3  4  1  0
  3 23  1  0
  4  5  2  0
  5  6  1  0
  6  7  1  0
  7  8  1  0
  8  9  1  0
  9 10  1  0
 10 11  1  0
 11 16  1  0
 11 12  2  0
 12 13  1  0
 13 14  1  0
 14 15  2  0
 14 16  1  0
 16 17  1  0
 17 18  1  0
 18 22  1  0
 18 19  1  0
 19 20  1  0
 20 21  1  0
 21 22  1  0
  1 24  1  0
  2 25  1  0
  4 26  1  0
  5 27  1  0
  8 28  1  0
  8 29  1  0
  9 30  1  0
  9 31  1  0
 13 32  1  0
 17 33  1  0
 17 34  1  0
 18 35  1  0
 19 36  1  0
 19 37  1  0
 20 38  1  0
 20 39  1  0
 21 40  1  0
 21 41  1  0
M  END
> <Name>
ZINC07349081

> <reference>
BDB50272061

> <quality>
0.786

> <status>
decoy

$$$$
ZINC07531552
  SciTegic06061311253D

 32 33  0  0  1  0            999 V2000
   -2.4823    1.4069    0.0191 C   0  0
   -1.0685    1.9288    0.0166 C   0  0
   -0.0126    1.0758    0.0080 C   0  0
    1.3466    2.2361    0.0012 S   0  0
    0.3992    3.6914    0.0174 C   0  0
   -0.8274    3.2231    0.0265 N   0  0
    0.8653    5.1245    0.0211 C   0  5
    1.6880    5.3698    1.2168 C   0  0
    2.3229    5.5591    2.1396 N   0  0
    1.6849    5.3893   -1.2155 C   0  0
    2.2506    4.4786   -1.7714 O   0  0
    1.7986    6.7905   -1.7584 C   0  0
    2.6352    6.7834   -2.9451 O   0  0
    2.8392    7.9665   -3.5569 C   0  0
    2.3319    8.9764   -3.1109 O   0  0
    3.6783    8.0355   -4.7679 C   0  0
    4.2635    6.8759   -5.2838 C   0  0
    5.0458    6.9468   -6.4156 C   0  0
    5.2541    8.1645   -7.0445 C   0  0
    4.6790    9.3180   -6.5413 C   0  0
    3.8876    9.2614   -5.4092 C   0  0
    3.3216   10.3868   -4.9211 F   0  0
    6.2417    8.2427   -8.4701 Cl  0  0
   -2.9555    1.8687   -0.8600 H   0  0
   -2.9467    1.8536    0.9106 H   0  0
   -2.5531    0.3092    0.0100 H   0  0
    0.0023   -0.0241    0.0058 H   0  0
    0.7977    7.1655   -2.0183 H   0  0
    2.2489    7.4445   -0.9971 H   0  0
    4.0997    5.9082   -4.7870 H   0  0
    5.5066    6.0342   -6.8216 H   0  0
    4.8518   10.2816   -7.0429 H   0  0
  1  2  1  0
  2  6  1  0
  2  3  2  0
  3  4  1  0
  4  5  1  0
  5  6  2  0
  5  7  1  0
  7  8  1  0
  7 10  1  0
  8  9  3  0
 10 11  2  0
 10 12  1  0
 12 13  1  0
 13 14  1  0
 14 15  2  0
 14 16  1  0
 16 21  2  0
 16 17  1  0
 17 18  2  0
 18 19  1  0
 19 20  2  0
 19 23  1  0
 20 21  1  0
 21 22  1  0
  1 24  1  0
  1 25  1  0
  1 26  1  0
  3 27  1  0
 12 28  1  0
 12 29  1  0
 17 30  1  0
 18 31  1  0
 20 32  1  0
M  CHG  1   7  -1
M  END
> <Name>
ZINC07531552

> <reference>
BDB50272061

> <quality>
0.780

> <status>
decoy

$$$$
ZINC09114580
  SciTegic06061311253D

 45 47  0  0  0  0            999 V2000
    5.6155    3.6744   -3.0815 C   0  0
    5.3192    3.6595   -1.5805 C   0  0
    3.9533    4.0176   -1.3611 O   0  0
    3.5707    4.0340    0.0157 C   0  0
    2.1190    4.4223    0.1290 C   0  0
    1.5785    5.7742    0.2666 C   0  0
    2.1477    7.0482    0.3350 C   0  0
    1.3420    8.1435    0.4680 C   0  0
   -0.0372    7.9985    0.5338 C   0  0
   -0.6182    6.7507    0.4678 C   0  0
    0.1812    5.6213    0.3333 C   0  0
   -0.0896    4.3050    0.2384 O   0  0
    1.0475    3.5875    0.1234 C   0  0
    1.1159    2.1246    0.0037 C   0  0
    2.1950    1.5726   -0.1009 O   0  0
   -0.0169    1.3943    0.0097 N   0  0
    0.0515   -0.0024   -0.0066 C   0  0
   -0.8898   -0.7527    0.6890 C   0  0
   -0.8267   -2.1333    0.6761 C   0  0
    0.1712   -2.7768   -0.0273 C   0  0
    1.1216   -2.0327   -0.7293 C   0  0
    1.0545   -0.6389   -0.7209 C   0  0
    2.1910   -2.7188   -1.4832 C   0  0
    3.0167   -2.0695   -2.0932 O   0  0
    2.2504   -4.0646   -1.4942 O   0  0
    3.3278   -4.6707   -2.2558 C   0  0
    5.4324    4.6822   -3.4824 H   0  0
    4.9613    2.9527   -3.5926 H   0  0
    6.6668    3.3988   -3.2511 H   0  0
    5.5022    2.6513   -1.1805 H   0  0
    5.9734    4.3811   -1.0693 H   0  0
    4.1882    4.7634    0.5604 H   0  0
    3.7170    3.0336    0.4490 H   0  0
    3.2398    7.1689    0.2820 H   0  0
    1.7891    9.1470    0.5233 H   0  0
   -0.6733    8.8897    0.6398 H   0  0
   -1.7121    6.6485    0.5214 H   0  0
   -0.9330    1.8649    0.0263 H   0  0
   -1.6876   -0.2458    1.2516 H   0  0
   -1.5745   -2.7213    1.2284 H   0  0
    0.2179   -3.8758   -0.0349 H   0  0
    1.7950   -0.0473   -1.2792 H   0  0
    4.2641   -4.2666   -1.8435 H   0  0
    3.2249   -4.3007   -3.2866 H   0  0
    3.3086   -5.7698   -2.2161 H   0  0
  1  2  1  0
  2  3  1  0
  3  4  1  0
  4  5  1  0
  5 13  2  0
  5  6  1  0
  6 11  1  0
  6  7  2  0
  7  8  1  0
  8  9  2  0
  9 10  1  0
 10 11  2  0
 11 12  1  0
 12 13  1  0
 13 14  1  0
 14 15  2  0
 14 16  1  0
 16 17  1  0
 17 22  2  0
 17 18  1  0
 18 19  2  0
 19 20  1  0
 20 21  2  0
 21 22  1  0
 21 23  1  0
 23 24  2  0
 23 25  1  0
 25 26  1  0
  1 27  1  0
  1 28  1  0
  1 29  1  0
  2 30  1  0
  2 31  1  0
  4 32  1  0
  4 33  1  0
  7 34  1  0
  8 35  1  0
  9 36  1  0
 10 37  1  0
 16 38  1  0
 18 39  1  0
 19 40  1  0
 20 41  1  0
 22 42  1  0
 26 43  1  0
 26 44  1  0
 26 45  1  0
M  END
> <Name>
ZINC09114580

> <reference>
BDB50272061

> <quality>
0.772

> <status>
decoy

$$$$
ZINC09387631
  SciTegic06061311253D

 51 53  0  0  0  0            999 V2000
   10.8018   -2.5432    0.2809 C   0  0
    9.5754   -3.3922    0.0663 C   0  0
    8.3365   -2.9271   -0.1707 C   0  0
    7.4725   -4.1047   -0.3122 C   0  0
    8.2922   -5.1991   -0.1376 C   0  0
    9.5443   -4.7561    0.0822 N   0  0
   10.7077   -5.6164    0.3115 C   0  0  2  0  0  0
   11.9616   -5.3460   -0.5224 C   0  0
   11.1041   -6.5815   -0.8076 C   0  0
    7.8616   -6.6425   -0.1876 C   0  0
    6.0259   -4.1151   -0.5794 C   0  0
    5.4326   -5.1718   -0.6722 O   0  0
    5.3585   -2.9527   -0.7213 O   0  0
    3.9329   -3.0389   -0.9834 C   0  0
    3.3609   -1.6506   -1.1113 C   0  0
    4.0834   -0.6837   -0.9931 O   0  0
    2.0463   -1.4834   -1.3569 N   0  0
    1.5196   -0.2054   -1.4746 C   0  0
    0.2180    0.1250   -1.7205 C   0  0
    0.2242    1.5343   -1.7426 C   0  0
    1.4545    1.9033   -1.5215 N   0  0
    2.1880    0.9542   -1.3703 O   0  0
   -0.9585    2.4372   -1.9816 C   0  0  1  0  0  0
   -1.8387    2.4665   -0.7305 C   0  0
   -0.4656    3.8520   -2.2917 C   0  0
   -1.7719    1.9097   -3.1652 C   0  0
   11.5004   -2.9280   -0.4766 H   0  0
   11.1792   -2.9006    1.2504 H   0  0
   10.6514   -1.4545    0.2356 H   0  0
    8.0311   -1.8729   -0.2440 H   0  0
   10.4944   -5.7163    1.3860 H   0  0
   12.8770   -5.6098    0.0276 H   0  0
   11.7879   -4.5549   -1.2667 H   0  0
   10.4801   -6.4403   -1.7024 H   0  0
   11.5681   -7.4948   -0.4068 H   0  0
    7.3711   -6.7122   -1.1697 H   0  0
    7.0512   -6.6765    0.5555 H   0  0
    8.6488   -7.3937   -0.0261 H   0  0
    3.4374   -3.5638   -0.1533 H   0  0
    3.7648   -3.5918   -1.9194 H   0  0
    1.4327   -2.3045   -1.4572 H   0  0
   -0.6369   -0.5514   -1.8673 H   0  0
   -1.2549    2.8459    0.1211 H   0  0
   -2.1939    1.4497   -0.5068 H   0  0
   -2.7022    3.1254   -0.9042 H   0  0
    0.1672    3.8320   -3.1912 H   0  0
    0.1192    4.2323   -1.4412 H   0  0
   -1.3284    4.5116   -2.4663 H   0  0
   -2.1270    0.8926   -2.9431 H   0  0
   -1.1400    1.8884   -4.0653 H   0  0
   -2.6354    2.5683   -3.3402 H   0  0
  1  2  1  0
  2  6  1  0
  2  3  2  0
  3  4  1  0
  4  5  2  0
  4 11  1  0
  5  6  1  0
  5 10  1  0
  6  7  1  0
  7  9  1  0
  7  8  1  0
  8  9  1  0
 11 12  2  0
 11 13  1  0
 13 14  1  0
 14 15  1  0
 15 16  2  0
 15 17  1  0
 17 18  1  0
 18 22  1  0
 18 19  2  0
 19 20  1  0
 20 21  2  0
 20 23  1  0
 21 22  1  0
 23 24  1  0
 23 25  1  0
 23 26  1  0
  1 27  1  0
  1 28  1  0
  1 29  1  0
  3 30  1  0
  7 31  1  0
  8 32  1  0
  8 33  1  0
  9 34  1  0
  9 35  1  0
 10 36  1  0
 10 37  1  0
 10 38  1  0
 14 39  1  0
 14 40  1  0
 17 41  1  0
 19 42  1  0
 24 43  1  0
 24 44  1  0
 24 45  1  0
 25 46  1  0
 25 47  1  0
 25 48  1  0
 26 49  1  0
 26 50  1  0
 26 51  1  0
M  END
> <Name>
ZINC09387631

> <reference>
BDB50272061

> <quality>
0.768

> <status>
decoy

$$$$
ZINC20930883
  SciTegic06061311253D

 44 46  0  0  0  0            999 V2000
   -0.0369   -6.9060   -1.3080 C   0  0
   -0.1519   -6.2767   -0.0302 O   0  0
   -0.4188   -4.9442   -0.0205 C   0  0
   -0.5435   -4.2693    1.1852 C   0  0
   -0.8144   -2.9147    1.1923 C   0  0
   -0.9611   -2.2315   -0.0007 C   0  0
   -0.8429   -2.9029   -1.2036 C   0  0
   -0.5665   -4.2564   -1.2162 C   0  0
   -1.2565   -0.7538    0.0100 C   0  0
    0.0021   -0.0041    0.0020 N   0  0
   -0.0166    1.3697    0.0096 C   0  0
    1.0329    2.1701    0.0039 N   0  0
    0.5302    3.4238    0.0154 C   0  0
   -0.7741    3.3202    0.0273 N   0  0
   -1.1043    2.1534    0.0183 O   0  0
    1.3121    4.6845    0.0147 C   0  0
    2.7051    4.6418    0.0069 C   0  0
    3.4318    5.8145    0.0009 C   0  0
    2.7788    7.0381    0.0133 C   0  0
    1.3869    7.0867    0.0269 C   0  0
    0.6546    5.9135    0.0276 C   0  0
    0.7482    8.2873    0.0390 O   0  0
   -0.6805    8.2620    0.0521 C   0  0
    3.4982    8.1913    0.0125 O   0  0
    4.9217    8.0679   -0.0018 C   0  0
    0.7577   -6.3690   -1.8468 H   0  0
   -0.9859   -6.7184   -1.8317 H   0  0
    0.1793   -7.9820   -1.2344 H   0  0
   -0.4268   -4.8123    2.1347 H   0  0
   -0.9135   -2.3791    2.1480 H   0  0
   -0.9690   -2.3589   -2.1513 H   0  0
   -0.4636   -4.7883   -2.1735 H   0  0
   -1.8449   -0.4909   -0.8814 H   0  0
   -1.8281   -0.4996    0.9148 H   0  0
    0.9010   -0.5069   -0.0093 H   0  0
    3.2254    3.6726    0.0055 H   0  0
    4.5311    5.7790   -0.0137 H   0  0
   -0.4447    5.9502    0.0383 H   0  0
   -0.9714    7.6830    0.9410 H   0  0
   -0.9879    7.6921   -0.8372 H   0  0
   -1.1238    9.2687    0.0614 H   0  0
    5.1721    7.4790   -0.8965 H   0  0
    5.1891    7.4696    0.8817 H   0  0
    5.4332    9.0417   -0.0016 H   0  0
  1  2  1  0
  2  3  1  0
  3  8  2  0
  3  4  1  0
  4  5  2  0
  5  6  1  0
  6  7  2  0
  6  9  1  0
  7  8  1  0
  9 10  1  0
 10 11  1  0
 11 15  1  0
 11 12  2  0
 12 13  1  0
 13 14  2  0
 13 16  1  0
 14 15  1  0
 16 21  2  0
 16 17  1  0
 17 18  2  0
 18 19  1  0
 19 20  2  0
 19 24  1  0
 20 21  1  0
 20 22  1  0
 22 23  1  0
 24 25  1  0
  1 26  1  0
  1 27  1  0
  1 28  1  0
  4 29  1  0
  5 30  1  0
  7 31  1  0
  8 32  1  0
  9 33  1  0
  9 34  1  0
 10 35  1  0
 17 36  1  0
 18 37  1  0
 21 38  1  0
 23 39  1  0
 23 40  1  0
 23 41  1  0
 25 42  1  0
 25 43  1  0
 25 44  1  0
M  END
> <Name>
ZINC20930883

> <reference>
BDB50272061

> <quality>
0.767

> <status>
decoy

$$$$
ZINC28686439
  SciTegic06061311253D

 37 39  0  0  0  0            999 V2000
   -0.3571    2.7804    1.8166 C   0  0
   -1.0026    3.2338    2.9483 C   0  0
   -2.0143    2.4649    3.5263 C   0  0
   -2.3696    1.2438    2.9507 C   0  0
   -1.7199    0.8048    1.8157 C   0  0
   -0.7181    1.5718    1.2479 C   0  0
   -0.0127    1.0858    0.0080 C   0  0
   -0.7038    1.5592   -1.1497 O   0  0
   -0.1136    1.1523   -2.3859 C   0  0
   -0.9319    1.7130   -3.5507 C   0  0  1  0  0  0
   -0.9482    3.1101   -3.4793 F   0  0
   -0.3541    1.3147   -4.7609 F   0  0
   -2.2417    1.2270   -3.4770 F   0  0
   -2.7064    2.9418    4.7420 C   0  0
   -3.5872    2.2702    5.2429 O   0  0
   -2.3610    4.1212    5.2953 N   0  5
   -3.0118    4.5696    6.4385 C   0  0
   -3.9858    4.0081    7.1414 N   0  0
   -4.4681    4.5592    8.1682 N   0  0
   -4.0366    5.7249    8.6075 C   0  0
   -2.7700    6.0676    7.3892 S   0  0
   -4.4790    6.5350    9.7987 C   0  0  2  0  0  0
   -5.4493    5.8753   10.7807 C   0  0
   -5.9415    6.9823    9.8451 C   0  0
    0.4464    3.3810    1.3653 H   0  0
   -0.7208    4.1990    3.3943 H   0  0
   -3.1658    0.6330    3.4011 H   0  0
   -1.9989   -0.1572    1.3611 H   0  0
    1.0191    1.4669   -0.0002 H   0  0
    0.0026   -0.0141    0.0008 H   0  0
   -0.1005    0.0539   -2.4433 H   0  0
    0.9161    1.5348   -2.4443 H   0  0
   -3.5069    7.0422    9.8874 H   0  0
   -5.3037    6.2493   11.8049 H   0  0
   -5.7648    4.8817   10.4296 H   0  0
   -6.5165    6.5708    9.0024 H   0  0
   -6.0539    7.9385   10.3771 H   0  0
  1  6  2  0
  1  2  1  0
  2  3  2  0
  3  4  1  0
  3 14  1  0
  4  5  2  0
  5  6  1  0
  6  7  1  0
  7  8  1  0
  8  9  1  0
  9 10  1  0
 10 11  1  0
 10 12  1  0
 10 13  1  0
 14 15  2  0
 14 16  1  0
 16 17  1  0
 17 21  1  0
 17 18  2  0
 18 19  1  0
 19 20  2  0
 20 21  1  0
 20 22  1  0
 22 24  1  0
 22 23  1  0
 23 24  1  0
  1 25  1  0
  2 26  1  0
  4 27  1  0
  5 28  1  0
  7 29  1  0
  7 30  1  0
  9 31  1  0
  9 32  1  0
 22 33  1  0
 23 34  1  0
 23 35  1  0
 24 36  1  0
 24 37  1  0
M  CHG  1  16  -1
M  END
> <Name>
ZINC28686439

> <reference>
BDB50272061

> <quality>
0.766

> <status>
decoy

$$$$
ZINC24099714
  SciTegic06061311253D

 34 35  0  0  1  0            999 V2000
   -0.0002    0.0759    0.7482 C   0  0
    1.1863   -0.6297    0.6639 C   0  0
    2.3654    0.0271    0.3631 C   0  0
    2.3616    1.3920    0.1461 C   0  0
    1.1704    2.1037    0.2293 C   0  0
   -0.0117    1.4398    0.5317 C   0  0
    1.1621    3.4840    0.0092 N   0  0
   -0.0460    4.1664   -0.0810 C   0  0
   -1.2756    3.6900   -0.0965 N   0  0
   -2.3431    4.5529   -0.1886 N   0  0
   -2.1310    5.8525   -0.2724 C   0  0
   -0.3470    5.9220   -0.2148 S   0  0
   -3.2960    7.1677   -0.4050 S   0  0
   -4.9052    6.3305   -0.4029 C   0  0
   -6.0215    7.3708   -0.5146 C   0  0  2  0  0  0
   -7.3795    6.6774   -0.3876 C   0  0
   -8.4901    7.7295   -0.3742 C   0  0
   -9.7966    7.0624   -0.2520 C   0  0
  -10.8048    6.5475   -0.1577 N   0  0
   -5.9351    8.0450   -1.8203 C   0  0
   -5.8683    8.5653   -2.8279 N   0  0
    3.8422    2.2165   -0.2303 Cl  0  0
   -0.9361   -0.4500    0.9880 H   0  0
    1.1920   -1.7160    0.8366 H   0  0
    3.3072   -0.5373    0.2965 H   0  0
   -0.9561    1.9999    0.5987 H   0  0
    2.0509    3.9956   -0.0862 H   0  0
   -4.9608    5.6406   -1.2578 H   0  0
   -5.0243    5.7650    0.5331 H   0  0
   -5.9123    8.1134    0.2895 H   0  0
   -7.5269    6.0003   -1.2419 H   0  0
   -7.4114    6.0997    0.5480 H   0  0
   -8.3435    8.4068    0.4801 H   0  0
   -8.4604    8.3075   -1.3096 H   0  0
  1  6  2  0
  1  2  1  0
  2  3  2  0
  3  4  1  0
  4  5  2  0
  4 22  1  0
  5  6  1  0
  5  7  1  0
  7  8  1  0
  8 12  1  0
  8  9  2  0
  9 10  1  0
 10 11  2  0
 11 12  1  0
 11 13  1  0
 13 14  1  0
 14 15  1  0
 15 16  1  0
 15 20  1  0
 16 17  1  0
 17 18  1  0
 18 19  3  0
 20 21  3  0
  1 23  1  0
  2 24  1  0
  3 25  1  0
  6 26  1  0
  7 27  1  0
 14 28  1  0
 14 29  1  0
 15 30  1  0
 16 31  1  0
 16 32  1  0
 17 33  1  0
 17 34  1  0
M  END
> <Name>
ZINC24099714

> <reference>
BDB50272061

> <quality>
0.758

> <status>
decoy

$$$$
ZINC29875206
  SciTegic06061311253D

 45 47  0  0  0  0            999 V2000
   -1.6733    4.2584    0.0402 C   0  0
   -0.7624    3.0579    0.0258 C   0  0
    0.6505    3.0750    0.0124 C   0  0
    1.0723    1.7577    0.0013 C   0  0
   -0.0111    0.9658    0.0074 N   0  0
   -1.1456    1.7487    0.0164 C   0  0
   -2.5275    1.2581    0.0195 C   0  0
   -3.4527    2.0472    0.0273 O   0  0
   -2.7723   -0.0681    0.0138 O   0  0
   -4.1642   -0.4816    0.0173 C   0  0
   -4.2412   -1.9866    0.0100 C   0  0
   -4.2792   -2.8143    1.1375 C   0  0
   -4.3451   -4.0568    0.7316 N   0  0
   -4.3513   -4.0601   -0.6693 N   0  0
   -4.2918   -2.7757   -1.0881 C   0  0
   -4.4138   -5.1939   -1.4914 C   0  0
   -4.4186   -5.0523   -2.8725 C   0  0
   -4.4759   -6.1715   -3.6798 C   0  0
   -4.5386   -7.4316   -3.1138 C   0  0
   -4.5388   -7.5756   -1.7386 C   0  0
   -4.4768   -6.4604   -0.9260 C   0  0
    2.5052    1.2911   -0.0154 C   0  0
    1.5113    4.2697    0.0113 C   0  0
    1.8568    4.7688   -1.0416 O   0  0
    1.9161    4.8096    1.1778 O   0  0
    2.7631    5.9864    1.1008 C   0  0
   -2.3063    4.0635    0.9185 H   0  0
   -2.3143    4.0784   -0.8354 H   0  0
   -1.1872    5.2451    0.0464 H   0  0
    0.0029   -0.0641    0.0056 H   0  0
   -4.6597   -0.0940    0.9197 H   0  0
   -4.6679   -0.0851   -0.8766 H   0  0
   -4.2574   -2.4785    2.1848 H   0  0
   -4.2856   -2.4338   -2.1336 H   0  0
   -4.3768   -4.0498   -3.3233 H   0  0
   -4.4717   -6.0604   -4.7742 H   0  0
   -4.5884   -8.3212   -3.7589 H   0  0
   -4.5884   -8.5793   -1.2913 H   0  0
   -4.4773   -6.5756    0.1680 H   0  0
    2.9336    1.8002    0.8605 H   0  0
    2.9161    1.8094   -0.8943 H   0  0
    2.6650    0.2028   -0.0227 H   0  0
    2.1997    6.7366    0.5265 H   0  0
    3.6426    5.6968    0.5071 H   0  0
    3.0508    6.3671    2.0919 H   0  0
  1  2  1  0
  2  6  2  0
  2  3  1  0
  3  4  2  0
  3 23  1  0
  4  5  1  0
  4 22  1  0
  5  6  1  0
  6  7  1  0
  7  8  2  0
  7  9  1  0
  9 10  1  0
 10 11  1  0
 11 15  2  0
 11 12  1  0
 12 13  2  0
 13 14  1  0
 14 15  1  0
 14 16  1  0
 16 21  2  0
 16 17  1  0
 17 18  2  0
 18 19  1  0
 19 20  2  0
 20 21  1  0
 23 24  2  0
 23 25  1  0
 25 26  1  0
  1 27  1  0
  1 28  1  0
  1 29  1  0
  5 30  1  0
 10 31  1  0
 10 32  1  0
 12 33  1  0
 15 34  1  0
 17 35  1  0
 18 36  1  0
 19 37  1  0
 20 38  1  0
 21 39  1  0
 22 40  1  0
 22 41  1  0
 22 42  1  0
 26 43  1  0
 26 44  1  0
 26 45  1  0
M  END
> <Name>
ZINC29875206

> <reference>
BDB50272061

> <quality>
0.752

> <status>
decoy

$$$$
ZINC26563003
  SciTegic06061311253D

 43 45  0  0  0  0            999 V2000
    1.5716    3.5496   -4.1624 C   0  0
    0.9181    4.3464   -3.0314 C   0  0
    1.6853    4.1069   -1.7295 C   0  0  1  0  0  0
    1.0919    4.9779   -0.6203 C   0  0
    1.3385    6.4530   -0.9432 C   0  0
    1.5750    2.6550   -1.3413 C   0  0
    0.5082    1.9281   -1.0745 N   0  0
    0.5872    0.7090   -0.7612 N   0  0
    1.7527    0.0817   -0.6808 C   0  0
    2.8557    1.4249   -1.1115 S   0  0
    2.0367   -1.2392   -0.3561 N   0  0
    1.0347   -2.0910   -0.0612 C   0  0
   -0.1093   -1.6825    0.0128 O   0  0
    1.3230   -3.5101    0.1705 C   0  0
    2.5538   -4.1059    0.1815 C   0  0
    2.3770   -5.4034    0.4313 N   0  0
    1.1003   -5.6571    0.5686 C   0  0
    0.4037   -4.5141    0.4156 N   0  0
   -0.9887   -4.3699    0.4901 C   0  0
   -1.5478   -3.4808    1.3981 C   0  0
   -2.9195   -3.3362    1.4663 C   0  0
   -3.7377   -4.0854    0.6374 C   0  0
   -3.1821   -4.9766   -0.2653 C   0  0
   -1.8106   -5.1201   -0.3401 C   0  0
   -5.0796   -3.9464    0.7092 F   0  0
    1.5502    2.4775   -3.9170 H   0  0
    2.6147    3.8759   -4.2870 H   0  0
    1.0205    3.7213   -5.0988 H   0  0
   -0.1250    4.0202   -2.9067 H   0  0
    0.9402    5.4183   -3.2775 H   0  0
    2.7439    4.3683   -1.8743 H   0  0
    1.5697    4.7284    0.3386 H   0  0
    0.0096    4.7946   -0.5494 H   0  0
    0.8603    6.7046   -1.9013 H   0  0
    2.4205    6.6380   -1.0143 H   0  0
    0.9121    7.0798   -0.1461 H   0  0
   -0.2836   -1.2545   -0.8627 H   0  0
    3.5181   -3.6039    0.0140 H   0  0
    0.6654   -6.6460    0.7759 H   0  0
   -0.8986   -2.8919    2.0628 H   0  0
   -3.3625   -2.6255    2.1795 H   0  0
   -3.8336   -5.5706   -0.9231 H   0  0
   -1.3696   -5.8283   -1.0570 H   0  0
  1  2  1  0
  2  3  1  0
  3  4  1  0
  3  6  1  0
  4  5  1  0
  6 10  1  0
  6  7  2  0
  7  8  1  0
  8  9  2  0
  9 10  1  0
  9 11  1  0
 11 12  2  0
 12 13  1  0
 12 14  1  0
 14 18  1  0
 14 15  2  0
 15 16  1  0
 16 17  2  0
 17 18  1  0
 18 19  1  0
 19 24  2  0
 19 20  1  0
 20 21  2  0
 21 22  1  0
 22 23  2  0
 22 25  1  0
 23 24  1  0
  1 26  1  0
  1 27  1  0
  1 28  1  0
  2 29  1  0
  2 30  1  0
  3 31  1  0
  4 32  1  0
  4 33  1  0
  5 34  1  0
  5 35  1  0
  5 36  1  0
 13 37  1  0
 15 38  1  0
 17 39  1  0
 20 40  1  0
 21 41  1  0
 23 42  1  0
 24 43  1  0
M  END
> <Name>
ZINC26563003

> <reference>
BDB50272061

> <quality>
0.752

> <status>
decoy

$$$$
ZINC18161663
  SciTegic06061311253D

 46 48  0  0  0  0            999 V2000
   11.1888    2.1829   11.7909 C   0  0
    9.8496    2.5753   11.1637 C   0  0
    8.9137    1.5087   11.3328 O   0  0
    7.6651    1.6973   10.8283 C   0  0
    6.7074    0.7024   10.9575 C   0  0
    5.4390    0.8940   10.4451 C   0  0
    5.1229    2.0816    9.8022 C   0  0
    6.0820    3.0745    9.6687 C   0  0
    7.3491    2.8847   10.1849 C   0  0
    3.8742    2.2702    9.2977 O   0  0
    3.6184    3.5171    8.6482 C   0  0
    2.1938    3.5448    8.1575 C   0  0
    1.1285    3.9918    8.8586 C   0  0
    0.0013    3.8458    8.0352 C   0  0
    0.4401    3.3018    6.8618 C   0  0
    1.7750    3.1299    6.9549 O   0  0
   -0.3927    2.9688    5.7021 C   0  0
   -1.5923    3.1707    5.7363 O   0  0
    0.1703    2.4389    4.5981 N   0  0
   -0.6011    2.2210    3.4591 C   0  0
    0.0063    1.7741    2.2906 C   0  0
   -0.7717    1.5617    1.1666 C   0  0
   -2.1372    1.7992    1.2515 C   0  0
   -2.6726    2.2471    2.4427 C   0  0
   -1.9058    2.4409    3.4987 N   0  0
   -4.1530    2.5120    2.5397 C   0  0
   11.5736    1.2771   11.2996 H   0  0
   11.0485    1.9858   12.8640 H   0  0
   11.9097    3.0035   11.6611 H   0  0
    9.4654    3.4810   11.6558 H   0  0
    9.9898    2.7725   10.0906 H   0  0
    6.9579   -0.2392   11.4680 H   0  0
    4.6796    0.1047   10.5469 H   0  0
    5.8336    4.0132    9.1517 H   0  0
    8.1075    3.6752   10.0857 H   0  0
    3.7765    4.3407    9.3600 H   0  0
    4.3019    3.6340    7.7943 H   0  0
    1.1422    4.3944    9.8822 H   0  0
   -1.0348    4.1170    8.2863 H   0  0
    1.1710    2.1951    4.5967 H   0  0
    1.0907    1.5920    2.2605 H   0  0
   -0.3189    1.2126    0.2269 H   0  0
   -2.7856    1.6322    0.3788 H   0  0
   -4.6355    1.5653    2.2552 H   0  0
   -4.3691    3.2410    1.7448 H   0  0
   -4.4747    2.8649    3.5306 H   0  0
  1  2  1  0
  2  3  1  0
  3  4  1  0
  4  9  2  0
  4  5  1  0
  5  6  2  0
  6  7  1  0
  7  8  2  0
  7 10  1  0
  8  9  1  0
 10 11  1  0
 11 12  1  0
 12 16  1  0
 12 13  2  0
 13 14  1  0
 14 15  2  0
 15 16  1  0
 15 17  1  0
 17 18  2  0
 17 19  1  0
 19 20  1  0
 20 25  2  0
 20 21  1  0
 21 22  2  0
 22 23  1  0
 23 24  2  0
 24 25  1  0
 24 26  1  0
  1 27  1  0
  1 28  1  0
  1 29  1  0
  2 30  1  0
  2 31  1  0
  5 32  1  0
  6 33  1  0
  8 34  1  0
  9 35  1  0
 11 36  1  0
 11 37  1  0
 13 38  1  0
 14 39  1  0
 19 40  1  0
 21 41  1  0
 22 42  1  0
 23 43  1  0
 26 44  1  0
 26 45  1  0
 26 46  1  0
M  END
> <Name>
ZINC18161663

> <reference>
BDB50272061

> <quality>
0.751

> <status>
decoy

$$$$
ZINC21124364
  SciTegic06061311253D

 44 46  0  0  0  0            999 V2000
    0.9073    3.5302   -5.2752 C   0  0
    1.6544    2.7041   -4.2263 C   0  0
    3.1618    2.8330   -4.4546 C   0  0
    3.9090    2.0069   -3.4057 C   0  0  1  0  0  0
    3.5670    2.4843   -2.0082 C   0  0
    3.7697    3.5840   -1.5400 O   0  0
    2.9915    1.4316   -1.3943 N   0  0
    2.9275    0.3651   -2.1996 C   0  0
    2.4539   -0.7041   -1.8685 O   0  0
    3.4427    0.6096   -3.4181 N   0  5
    2.5021    1.4508   -0.0136 C   0  0
    1.0598    1.8872    0.0021 C   0  0
   -0.0126    1.0758    0.0080 C   0  0
   -1.1101    1.8602    0.0168 O   0  0
   -0.6971    3.1407    0.0256 C   0  0
    0.6180    3.1545    0.0131 N   0  0
   -1.5687    4.3245    0.0399 C   0  0
   -2.9497    4.3901    0.0534 C   0  0
   -3.5459    5.6295    0.0658 C   0  0
   -2.7663    6.7423    0.0643 C   0  0
   -1.1200    6.0526    0.0522 S   0  0
    5.4191    2.0726   -3.6425 C   0  0
    6.1264    1.1000   -2.6966 C   0  0
    7.6366    1.1656   -2.9334 C   0  0
    1.1580    3.1613   -6.2807 H   0  0
    1.2014    4.5866   -5.1890 H   0  0
   -0.1766    3.4380   -5.1117 H   0  0
    1.4034    3.0739   -3.2212 H   0  0
    1.3603    1.6476   -4.3124 H   0  0
    3.4580    3.8888   -4.3678 H   0  0
    3.4136    2.4630   -5.4594 H   0  0
    2.5843    0.4427    0.4188 H   0  0
    3.1038    2.1546    0.5801 H   0  0
    0.0023   -0.0241    0.0060 H   0  0
   -3.5571    3.4730    0.0542 H   0  0
   -4.6422    5.7189    0.0768 H   0  0
   -3.0718    7.7990    0.0693 H   0  0
    5.6395    1.7958   -4.6841 H   0  0
    5.7773    3.0949   -3.4511 H   0  0
    5.7702    0.0769   -2.8874 H   0  0
    5.9068    1.3765   -1.6548 H   0  0
    7.9948    2.1879   -2.7420 H   0  0
    7.8578    0.8892   -3.9749 H   0  0
    8.1457    0.4665   -2.2536 H   0  0
  1  2  1  0
  2  3  1  0
  3  4  1  0
  4 10  1  0
  4  5  1  0
  4 22  1  0
  5  6  2  0
  5  7  1  0
  7  8  1  0
  7 11  1  0
  8  9  2  0
  8 10  1  0
 11 12  1  0
 12 16  1  0
 12 13  2  0
 13 14  1  0
 14 15  1  0
 15 16  2  0
 15 17  1  0
 17 21  1  0
 17 18  2  0
 18 19  1  0
 19 20  2  0
 20 21  1  0
 22 23  1  0
 23 24  1  0
  1 25  1  0
  1 26  1  0
  1 27  1  0
  2 28  1  0
  2 29  1  0
  3 30  1  0
  3 31  1  0
 11 32  1  0
 11 33  1  0
 13 34  1  0
 18 35  1  0
 19 36  1  0
 20 37  1  0
 22 38  1  0
 22 39  1  0
 23 40  1  0
 23 41  1  0
 24 42  1  0
 24 43  1  0
 24 44  1  0
M  CHG  1  10  -1
M  END
> <Name>
ZINC21124364

> <reference>
BDB50272061

> <quality>
0.734

> <status>
decoy

$$$$
ZINC14158288
  SciTegic06061311253D

 42 44  0  0  0  0            999 V2000
    0.3150    2.7462   -4.4234 C   0  0
    0.7594    2.9368   -2.9718 C   0  0
    1.5123    1.6908   -2.5011 C   0  0
    1.9378    1.8733   -1.1112 N   0  0
    1.2205    1.5314   -0.0014 C   0  0
    1.9260    1.8530    1.0528 N   0  0
    3.1340    2.4095    0.6123 N   0  0
    3.1213    2.4161   -0.6990 C   0  0
    4.4049    3.0190   -1.7448 S   0  0
    5.6781    3.5961   -0.5887 C   0  0
    6.8487    4.1443   -1.3634 C   0  0
    7.0208    5.4226   -1.7689 C   0  0
    8.2714    5.4013   -2.4481 C   0  0
    8.7003    4.1649   -2.3817 N   0  0
    7.9243    3.4603   -1.7791 O   0  0
    8.9517    6.5471   -3.0995 C   0  0
    8.3638    7.8101   -3.0854 C   0  0
    9.0006    8.8728   -3.6928 C   0  0
   10.2226    8.6894   -4.3163 C   0  0
   10.8146    7.4413   -4.3364 C   0  0
   10.1886    6.3659   -3.7255 C   0  0
   10.7722    5.1397   -3.7395 O   0  0
   12.0358    5.0301   -4.3977 C   0  0
   -0.0110    0.9628    0.0073 O   0  0
   -0.3470    1.8705   -4.4933 H   0  0
    1.1978    2.5896   -5.0607 H   0  0
   -0.2264    3.6417   -4.7625 H   0  0
    1.4215    3.8125   -2.9029 H   0  0
   -0.1234    3.0935   -2.3345 H   0  0
    0.8506    0.8147   -2.5694 H   0  0
    2.3962    1.5332   -3.1367 H   0  0
    5.2605    4.3867    0.0520 H   0  0
    6.0144    2.7563    0.0371 H   0  0
    6.3500    6.2799   -1.6106 H   0  0
    7.3929    7.9599   -2.5905 H   0  0
    8.5353    9.8695   -3.6815 H   0  0
   10.7247    9.5413   -4.7980 H   0  0
   11.7836    7.3008   -4.8376 H   0  0
   12.7055    5.7492   -3.9033 H   0  0
   11.8770    5.3723   -5.4310 H   0  0
   12.4442    4.0092   -4.3673 H   0  0
    0.1216    0.1605   -0.5573 H   0  0
  1  2  1  0
  2  3  1  0
  3  4  1  0
  4  8  1  0
  4  5  1  0
  5  6  2  0
  5 24  1  0
  6  7  1  0
  7  8  2  0
  8  9  1  0
  9 10  1  0
 10 11  1  0
 11 15  1  0
 11 12  2  0
 12 13  1  0
 13 14  2  0
 13 16  1  0
 14 15  1  0
 16 21  2  0
 16 17  1  0
 17 18  2  0
 18 19  1  0
 19 20  2  0
 20 21  1  0
 21 22  1  0
 22 23  1  0
  1 25  1  0
  1 26  1  0
  1 27  1  0
  2 28  1  0
  2 29  1  0
  3 30  1  0
  3 31  1  0
 10 32  1  0
 10 33  1  0
 12 34  1  0
 17 35  1  0
 18 36  1  0
 19 37  1  0
 20 38  1  0
 23 39  1  0
 23 40  1  0
 23 41  1  0
 24 42  1  0
M  END
> <Name>
ZINC14158288

> <reference>
BDB50272061

> <quality>
0.733

> <status>
decoy

$$$$
ZINC27706341
  SciTegic06061311253D

 46 48  0  0  0  0            999 V2000
   -2.5587    3.8646    0.0467 C   0  0
   -1.2415    3.1328    0.0307 C   0  0
   -1.2194    1.7501    0.0173 C   0  0
   -0.0126    1.0758    0.0080 C   0  0
    1.1748    1.7823    0.0004 C   0  0
    1.1553    3.1692    0.0080 C   0  0
   -0.0572    3.8436    0.0232 C   0  0
    2.3218    3.8664    0.0011 O   0  0
    2.2256    5.2921    0.0097 C   0  0
    3.6304    5.8982    0.0000 C   0  0
    4.2926    5.5653   -1.2486 O   0  0
    5.5484    6.0272   -1.4178 C   0  0
    6.0752    6.6903   -0.5449 O   0  0
    6.2782    5.7302   -2.6536 C   0  0
    7.5826    6.2073   -2.8487 C   0  0
    8.2229    5.9239   -3.9636 N   0  0
    7.6588    5.1970   -4.9322 C   0  0
    8.3875    4.9315   -6.1033 C   0  0
    7.8173    4.1897   -7.0967 C   0  0
    6.5137    3.7045   -6.9341 C   0  0
    5.8278    3.9709   -5.7984 C   0  0
    6.3894    4.7100   -4.8029 N   0  0
    5.6802    4.9595   -3.6808 C   0  0
    4.5472    4.5294   -3.5542 O   0  0
    5.8743    2.8843   -8.0247 C   0  0
    2.4899    1.0466   -0.0166 C   0  0
   -2.5321    4.5209   -0.8357 H   0  0
   -2.5155    4.5120    0.9350 H   0  0
   -3.4361    3.2012    0.0516 H   0  0
   -2.1637    1.1859    0.0140 H   0  0
    0.0024   -0.0241    0.0066 H   0  0
   -0.0753    4.9434    0.0293 H   0  0
    1.6922    5.6193    0.9144 H   0  0
    1.6758    5.6280   -0.8818 H   0  0
    3.5588    6.9916    0.0963 H   0  0
    4.2115    5.4933    0.8417 H   0  0
    8.0691    6.8164   -2.0726 H   0  0
    9.4106    5.3188   -6.2189 H   0  0
    8.3776    3.9744   -8.0185 H   0  0
    4.8045    3.5857   -5.6783 H   0  0
    6.5615    2.0410   -8.1877 H   0  0
    5.9201    3.5182   -8.9225 H   0  0
    4.8506    2.5549   -7.7932 H   0  0
    2.4439    0.3998   -0.9052 H   0  0
    2.4612    0.3898    0.8653 H   0  0
    3.3695    1.7071   -0.0215 H   0  0
  1  2  1  0
  2  7  2  0
  2  3  1  0
  3  4  2  0
  4  5  1  0
  5  6  2  0
  5 26  1  0
  6  7  1  0
  6  8  1  0
  8  9  1  0
  9 10  1  0
 10 11  1  0
 11 12  1  0
 12 13  2  0
 12 14  1  0
 14 23  1  0
 14 15  2  0
 15 16  1  0
 16 17  2  0
 17 22  1  0
 17 18  1  0
 18 19  2  0
 19 20  1  0
 20 21  2  0
 20 25  1  0
 21 22  1  0
 22 23  1  0
 23 24  2  0
  1 27  1  0
  1 28  1  0
  1 29  1  0
  3 30  1  0
  4 31  1  0
  7 32  1  0
  9 33  1  0
  9 34  1  0
 10 35  1  0
 10 36  1  0
 15 37  1  0
 18 38  1  0
 19 39  1  0
 21 40  1  0
 25 41  1  0
 25 42  1  0
 25 43  1  0
 26 44  1  0
 26 45  1  0
 26 46  1  0
M  END
> <Name>
ZINC27706341

> <reference>
BDB50272061

> <quality>
0.729

> <status>
decoy

$$$$
ZINC22569799
  SciTegic06061311253D

 43 45  0  0  0  0            999 V2000
    3.6099   -1.9504   -0.0427 C   0  0
    2.4185   -2.7395   -0.0356 O   0  0
    1.2347   -2.0702   -0.0208 C   0  0
    1.2225   -0.6894   -0.0191 C   0  0
    0.0021   -0.0041    0.0020 C   0  0
   -1.1993   -0.7224    0.0096 C   0  0
   -1.1777   -2.0996    0.0021 C   0  0
    0.0336   -2.7786   -0.0131 C   0  0
    0.0485   -4.1367   -0.0209 O   0  0
   -0.0179    1.4653    0.0101 C   0  0
   -1.1969    2.1249    0.0193 C   0  0
   -1.2161    3.5425    0.0271 C   0  0
   -0.1710    4.1650    0.0255 O   0  0
   -2.3937    4.2012    0.0362 O   0  0
   -2.3383    5.6291    0.0437 C   0  0
   -3.7385    6.1861    0.0534 C   0  0
   -4.4386    6.4547    1.1197 N   0  0
   -5.6329    6.9373    0.7453 C   0  0
   -5.6600    6.9529   -0.6121 C   0  0
   -4.4664    6.4795   -1.0327 O   0  0
   -6.7804    7.4012   -1.4659 C   0  0
   -7.9628    7.8628   -0.8854 C   0  0
   -9.0025    8.2851   -1.6878 C   0  0
   -8.8794    8.2406   -3.0652 C   0  0
   -7.7120    7.7792   -3.6470 C   0  0
   -6.6626    7.3593   -2.8560 C   0  0
    3.5620   -1.3100    0.8503 H   0  0
    3.5451   -1.3005   -0.9278 H   0  0
    4.5247   -2.5611   -0.0546 H   0  0
    2.1692   -0.1295   -0.0343 H   0  0
   -2.1603   -0.1872    0.0216 H   0  0
   -2.1224   -2.6631    0.0082 H   0  0
    0.5891   -4.3908    0.7686 H   0  0
    0.9272    2.0282    0.0087 H   0  0
   -2.1420    1.5621    0.0207 H   0  0
   -1.8022    5.9707    0.9414 H   0  0
   -1.8106    5.9814   -0.8548 H   0  0
   -6.4426    7.2613    1.4157 H   0  0
   -8.0654    7.8898    0.2095 H   0  0
   -9.9314    8.6580   -1.2316 H   0  0
   -9.7134    8.5735   -3.7005 H   0  0
   -7.6204    7.7471   -4.7427 H   0  0
   -5.7351    6.9923   -3.3198 H   0  0
  1  2  1  0
  2  3  1  0
  3  8  2  0
  3  4  1  0
  4  5  2  0
  5  6  1  0
  5 10  1  0
  6  7  2  0
  7  8  1  0
  8  9  1  0
 10 11  2  0
 11 12  1  0
 12 13  2  0
 12 14  1  0
 14 15  1  0
 15 16  1  0
 16 20  1  0
 16 17  2  0
 17 18  1  0
 18 19  2  0
 19 20  1  0
 19 21  1  0
 21 26  2  0
 21 22  1  0
 22 23  2  0
 23 24  1  0
 24 25  2  0
 25 26  1  0
  1 27  1  0
  1 28  1  0
  1 29  1  0
  4 30  1  0
  6 31  1  0
  7 32  1  0
  9 33  1  0
 10 34  1  0
 11 35  1  0
 15 36  1  0
 15 37  1  0
 18 38  1  0
 22 39  1  0
 23 40  1  0
 24 41  1  0
 25 42  1  0
 26 43  1  0
M  END
> <Name>
ZINC22569799

> <reference>
BDB50272061

> <quality>
0.728

> <status>
decoy

$$$$
ZINC29988210
  SciTegic06061311253D

 40 41  0  0  0  0            999 V2000
  -10.2489   11.2794   -0.7807 C   0  0
   -9.6963    9.8799   -0.6974 C   0  0
  -10.3763    8.7011   -0.7076 C   0  0
   -9.6790    7.5250   -0.6213 C   0  0
   -8.2939    7.6168   -0.5270 C   0  0
   -8.0414    9.3827   -0.5581 S   0  0
   -7.3378    6.5822   -0.4266 C   0  0
   -7.6972    5.4222   -0.4145 O   0  0
   -5.8715    6.9176   -0.3344 C   0  0
   -5.0994    5.6915   -0.2407 O   0  0
   -3.7598    5.8169   -0.1507 C   0  0
   -3.2512    6.9214   -0.1506 O   0  0
   -2.9153    4.6199   -0.0529 C   0  0
   -1.5437    4.7483    0.0393 C   0  0
   -0.6930    3.5603   -0.0130 C   0  0
   -1.0667    2.2739   -0.4785 C   0  0
    0.0256    1.4705   -0.3482 C   0  0
    1.0586    2.2191    0.1729 N   0  0
    0.6366    3.4775    0.3780 C   0  0
    1.4641    4.6059    0.9375 C   0  0
    2.4061    1.7202    0.4588 C   0  0
    0.0912    0.0838   -0.6992 C   0  0
    0.1432   -1.0163   -0.9776 N   0  0
   -3.5143    3.3192   -0.0531 C   0  0
   -3.9894    2.2873   -0.0533 N   0  0
   -9.6520   11.6762   -1.6151 H   0  0
   -9.7816   11.7276    0.1085 H   0  0
  -11.3347   11.4331   -0.8670 H   0  0
  -11.4736    8.6927   -0.7843 H   0  0
  -10.1913    6.5516   -0.6263 H   0  0
   -5.5656    7.4752   -1.2319 H   0  0
   -5.6905    7.5332    0.5591 H   0  0
   -1.0909    5.7444    0.1521 H   0  0
   -2.0517    1.9805   -0.8704 H   0  0
    0.8574    4.9480    1.7889 H   0  0
    1.3618    5.3830    0.1657 H   0  0
    2.5060    4.3673    1.1974 H   0  0
    2.7177    1.2950   -0.5067 H   0  0
    2.2124    0.8612    1.1181 H   0  0
    3.1189    2.4475    0.8746 H   0  0
  1  2  1  0
  2  6  1  0
  2  3  2  0
  3  4  1  0
  4  5  2  0
  5  6  1  0
  5  7  1  0
  7  8  2  0
  7  9  1  0
  9 10  1  0
 10 11  1  0
 11 12  2  0
 11 13  1  0
 13 14  2  0
 13 24  1  0
 14 15  1  0
 15 19  2  0
 15 16  1  0
 16 17  2  0
 17 18  1  0
 17 22  1  0
 18 19  1  0
 18 21  1  0
 19 20  1  0
 22 23  3  0
 24 25  3  0
  1 26  1  0
  1 27  1  0
  1 28  1  0
  3 29  1  0
  4 30  1  0
  9 31  1  0
  9 32  1  0
 14 33  1  0
 16 34  1  0
 20 35  1  0
 20 36  1  0
 20 37  1  0
 21 38  1  0
 21 39  1  0
 21 40  1  0
M  END
> <Name>
ZINC29988210

> <reference>
BDB50272061

> <quality>
0.726

> <status>
decoy

$$$$
ZINC12532127
  SciTegic06061311253D

 45 46  0  0  0  0            999 V2000
    9.5466   -2.8593    0.2084 C   0  0
    8.4309   -1.9301   -0.2739 C   0  0
    7.5855   -1.5654    0.8489 O   0  0
    6.5491   -0.7459    0.5926 C   0  0
    6.3560   -0.3463   -0.5380 O   0  0
    5.7255   -0.3687    1.5905 N   0  0
    4.6876    0.4520    1.3338 C   0  0
    4.4949    0.8508    0.2053 O   0  0
    3.7667    0.8738    2.4496 C   0  0
    2.4827    1.9666    1.7915 S   0  0
    1.5761    2.2961    3.2661 C   0  0
    1.8507    1.8219    4.4590 N   0  0
    0.9477    2.2835    5.3405 C   0  0
    0.0820    3.0759    4.6857 C   0  0
    0.4691    3.0869    3.3626 N   0  0
   -0.1529    3.7832    2.3168 C   0  0
   -0.1692    5.1716    2.3183 C   0  0
   -0.7881    5.8547    1.2899 C   0  0
   -1.3859    5.1572    0.2560 C   0  0
   -1.3664    3.7748    0.2489 C   0  0
   -0.7493    3.0861    1.2751 C   0  0
   -0.7288    1.5792    1.2668 C   0  0  2  0  0  0
   -0.0127    1.0858    0.0080 C   0  0
   -2.1642    1.0497    1.2777 C   0  0
    9.1056   -3.7677    0.6447 H   0  0
   10.1510   -2.3440    0.9694 H   0  0
   10.1874   -3.1360   -0.6418 H   0  0
    8.8727   -1.0219   -0.7097 H   0  0
    7.8264   -2.4454   -1.0349 H   0  0
    5.8892   -0.7076    2.5493 H   0  0
    3.2974   -0.0162    2.8942 H   0  0
    4.3425    1.4081    3.2196 H   0  0
    0.9215    2.0521    6.4156 H   0  0
   -0.7727    3.6134    5.1223 H   0  0
    0.3104    5.7269    3.1378 H   0  0
   -0.8056    6.9546    1.2931 H   0  0
   -1.8779    5.7034   -0.5623 H   0  0
   -1.8428    3.2228   -0.5747 H   0  0
   -0.1967    1.2148    2.1579 H   0  0
    1.0195    1.4659   -0.0007 H   0  0
   -0.5442    1.4495   -0.8838 H   0  0
    0.0026   -0.0141    0.0013 H   0  0
   -2.6971    1.4133    0.3867 H   0  0
   -2.6799    1.4037    2.1826 H   0  0
   -2.1500   -0.0502    1.2716 H   0  0
  1  2  1  0
  2  3  1  0
  3  4  1  0
  4  5  2  0
  4  6  1  0
  6  7  1  0
  7  8  2  0
  7  9  1  0
  9 10  1  0
 10 11  1  0
 11 15  1  0
 11 12  2  0
 12 13  1  0
 13 14  2  0
 14 15  1  0
 15 16  1  0
 16 21  2  0
 16 17  1  0
 17 18  2  0
 18 19  1  0
 19 20  2  0
 20 21  1  0
 21 22  1  0
 22 23  1  0
 22 24  1  0
  1 25  1  0
  1 26  1  0
  1 27  1  0
  2 28  1  0
  2 29  1  0
  6 30  1  0
  9 31  1  0
  9 32  1  0
 13 33  1  0
 14 34  1  0
 17 35  1  0
 18 36  1  0
 19 37  1  0
 20 38  1  0
 22 39  1  0
 23 40  1  0
 23 41  1  0
 23 42  1  0
 24 43  1  0
 24 44  1  0
 24 45  1  0
M  END
> <Name>
ZINC12532127

> <reference>
BDB50272061

> <quality>
0.724

> <status>
decoy

$$$$
ZINC14227223
  SciTegic06061311253D

 38 39  0  0  0  0            999 V2000
   -7.8419    1.7683    1.7459 C   0  0
   -6.6432    2.3680    1.0082 C   0  0
   -6.3927    1.5828   -0.2808 C   0  0
   -5.1940    2.1825   -1.0186 C   0  0
   -4.8970    1.2514   -2.5468 S   0  0
   -5.9641    1.4595   -3.4619 O   0  0
   -4.4510   -0.0626   -2.2406 O   0  0
   -3.5900    1.9888   -3.2472 N   0  5
   -2.3436    1.9559   -2.6108 C   0  0
   -1.1576    2.5363   -3.0890 C   0  0
   -0.1799    2.2835   -2.1892 C   0  0
   -0.7213    1.5711   -1.1789 N   0  0
   -2.0776    1.3717   -1.4663 N   0  0
   -0.0127    1.0858    0.0080 C   0  0
   -0.7181    1.5718    1.2479 C   0  0
   -1.7211    0.8070    1.8190 C   0  0
   -2.3680    1.2544    2.9583 C   0  0
   -2.0125    2.4640    3.5251 C   0  0
   -1.0113    3.2274    2.9551 C   0  0
   -0.3600    2.7792    1.8192 C   0  0
    0.9023    3.7356    1.1081 Cl  0  0
   -2.0680   -0.3753    1.2650 F   0  0
   -7.6333    0.7168    1.9926 H   0  0
   -8.7338    1.8238    1.1044 H   0  0
   -8.0226    2.3324    2.6728 H   0  0
   -6.8528    3.4193    0.7616 H   0  0
   -5.7513    2.3125    1.6496 H   0  0
   -6.1826    0.5314   -0.0349 H   0  0
   -7.2833    1.6381   -0.9241 H   0  0
   -4.3020    2.1271   -0.3772 H   0  0
   -5.4036    3.2338   -1.2653 H   0  0
   -1.0439    3.0970   -4.0285 H   0  0
    0.8701    2.6020   -2.2671 H   0  0
    0.0018   -0.0141    0.0024 H   0  0
    1.0194    1.4662    0.0013 H   0  0
   -3.1649    0.6473    3.4125 H   0  0
   -2.5268    2.8192    4.4303 H   0  0
   -0.7319    4.1918    3.4045 H   0  0
  1  2  1  0
  2  3  1  0
  3  4  1  0
  4  5  1  0
  5  6  2  0
  5  7  2  0
  5  8  1  0
  8  9  1  0
  9 13  2  0
  9 10  1  0
 10 11  2  0
 11 12  1  0
 12 13  1  0
 12 14  1  0
 14 15  1  0
 15 20  2  0
 15 16  1  0
 16 17  2  0
 16 22  1  0
 17 18  1  0
 18 19  2  0
 19 20  1  0
 20 21  1  0
  1 23  1  0
  1 24  1  0
  1 25  1  0
  2 26  1  0
  2 27  1  0
  3 28  1  0
  3 29  1  0
  4 30  1  0
  4 31  1  0
 10 32  1  0
 11 33  1  0
 14 34  1  0
 14 35  1  0
 17 36  1  0
 18 37  1  0
 19 38  1  0
M  CHG  1   8  -1
M  END
> <Name>
ZINC14227223

> <reference>
BDB50272061

> <quality>
0.718

> <status>
decoy

$$$$
ZINC09568661
  SciTegic06061311253D

 43 45  0  0  1  0            999 V2000
   -5.4425    3.7309    0.6272 C   0  0
   -4.5486    3.5172   -0.5961 C   0  0  1  0  0  0
   -4.5509    4.7633   -1.4437 C   0  0
   -3.6779    5.5868   -1.3089 O   0  0
   -5.6424    4.9817   -2.4594 C   0  0
   -2.8593    3.1594   -0.0538 S   0  0
   -3.1195    1.6196    0.7622 C   0  0
   -4.3313    1.1030    0.8031 N   0  0
   -4.5554   -0.0535    1.4171 C   0  0
   -3.5288   -0.7782    2.0392 C   0  0
   -3.9273   -2.0434    2.6784 C   0  0
   -5.2258   -2.3768    2.6073 C   0  0
   -5.9917   -1.0553    1.6969 S   0  0
   -5.5157   -3.6834    3.2962 C   0  0
   -4.2835   -3.9297    4.1943 C   0  0
   -3.1891   -3.1431    3.4469 C   0  0
   -2.2229   -0.1986    1.9749 C   0  0
   -1.2703   -0.7600    2.4883 O   0  0
   -2.0622    0.9766    1.3380 N   0  0
   -0.7288    1.5792    1.2668 C   0  0
   -0.0127    1.0858    0.0080 C   0  0
   -0.7038    1.5592   -1.1497 O   0  0
   -0.1136    1.1523   -2.3859 C   0  0
   -6.4696    3.9481    0.2987 H   0  0
   -5.0608    4.5763    1.2184 H   0  0
   -5.4413    2.8217    1.2464 H   0  0
   -4.9310    2.6715   -1.1865 H   0  0
   -6.5778    4.9211   -1.8838 H   0  0
   -5.6070    4.0920   -3.1053 H   0  0
   -5.5531    5.9205   -3.0257 H   0  0
   -6.4207   -3.5927    3.9148 H   0  0
   -5.6089   -4.4909    2.5551 H   0  0
   -4.0348   -5.0009    4.2201 H   0  0
   -4.4467   -3.5022    5.1946 H   0  0
   -2.4905   -2.6947    4.1687 H   0  0
   -2.6647   -3.8064    2.7433 H   0  0
   -0.1473    1.2915    2.1551 H   0  0
   -0.8228    2.6745    1.2290 H   0  0
    1.0191    1.4669   -0.0002 H   0  0
    0.0026   -0.0141    0.0008 H   0  0
   -0.0888    0.0526   -2.3954 H   0  0
    0.9217    1.5237   -2.3971 H   0  0
   -0.6764    1.5379   -3.2488 H   0  0
  1  2  1  0
  2  3  1  0
  2  6  1  0
  3  4  2  0
  3  5  1  0
  6  7  1  0
  7 19  1  0
  7  8  2  0
  8  9  1  0
  9 13  1  0
  9 10  2  0
 10 11  1  0
 10 17  1  0
 11 16  1  0
 11 12  2  0
 12 13  1  0
 12 14  1  0
 14 15  1  0
 15 16  1  0
 17 18  2  0
 17 19  1  0
 19 20  1  0
 20 21  1  0
 21 22  1  0
 22 23  1  0
  1 24  1  0
  1 25  1  0
  1 26  1  0
  2 27  1  0
  5 28  1  0
  5 29  1  0
  5 30  1  0
 14 31  1  0
 14 32  1  0
 15 33  1  0
 15 34  1  0
 16 35  1  0
 16 36  1  0
 20 37  1  0
 20 38  1  0
 21 39  1  0
 21 40  1  0
 23 41  1  0
 23 42  1  0
 23 43  1  0
M  END
> <Name>
ZINC09568661

> <reference>
BDB50272061

> <quality>
0.716

> <status>
decoy

$$$$
ZINC14229227
  SciTegic06061311253D

 51 52  0  0  1  0            999 V2000
   -0.7682   -0.2300    0.1931 C   0  0
   -1.3332    0.4872    1.4209 C   0  0
   -0.5574    0.0541    2.6664 C   0  0  1  0  0  0
    0.8934    0.5268    2.5536 C   0  0
   -1.1908    0.6643    3.8902 C   0  0
   -1.2718    2.0388    4.0140 C   0  0
   -1.8572    2.5984    5.1343 C   0  0
   -2.3520    1.7839    6.1355 C   0  0
   -2.2662    0.4095    6.0141 C   0  0
   -1.6856   -0.1502    4.8914 C   0  0
   -2.9846    2.3941    7.3597 C   0  0  1  0  0  0
   -1.8895    2.8518    8.3252 C   0  0
   -3.8004    3.5453    6.9654 N   0  0
   -5.2249    3.8581    7.7499 S   0  0
   -5.7675    5.0290    7.1550 O   0  0
   -5.9377    2.6300    7.8026 O   0  0
   -4.8223    4.2785    9.4130 C   0  0
   -5.1615    3.5731   10.5168 C   0  0
   -4.6646    4.2239   11.5895 N   0  0
   -4.0058    5.3718   11.1304 N   0  0
   -4.1010    5.4035    9.8259 C   0  0
   -3.5321    6.4684    8.9240 C   0  0
   -4.7960    3.8067   12.9877 C   0  0
   -3.4082    3.7150   13.6252 C   0  0
   -0.8659   -1.3177    0.3252 H   0  0
    0.2937    0.0301    0.0716 H   0  0
   -1.3256    0.0810   -0.7028 H   0  0
   -2.3951    0.2272    1.5425 H   0  0
   -1.2348    1.5747    1.2880 H   0  0
   -0.5803   -1.0425    2.7497 H   0  0
    0.9174    1.6234    2.4705 H   0  0
    1.3568    0.0818    1.6607 H   0  0
    1.4518    0.2157    3.4488 H   0  0
   -0.8705    2.6871    3.2211 H   0  0
   -1.9293    3.6919    5.2290 H   0  0
   -2.6599   -0.2387    6.8109 H   0  0
   -1.6173   -1.2438    4.7947 H   0  0
   -3.6211    1.6461    7.8551 H   0  0
   -1.2526    3.6001    7.8308 H   0  0
   -1.2764    1.9881    8.6220 H   0  0
   -2.3505    3.2973    9.2190 H   0  0
   -3.4880    4.1601    6.2003 H   0  0
   -5.7388    2.6370   10.5362 H   0  0
   -4.4144    6.7930    8.3529 H   0  0
   -2.9205    5.8835    8.2213 H   0  0
   -2.9890    7.2894    9.4150 H   0  0
   -5.4023    4.5435   13.5349 H   0  0
   -5.2854    2.8226   13.0334 H   0  0
   -2.9177    4.6986   13.5813 H   0  0
   -2.8007    2.9784   13.0791 H   0  0
   -3.5062    3.4018   14.6751 H   0  0
  1  2  1  0
  2  3  1  0
  3  4  1  0
  3  5  1  0
  5 10  2  0
  5  6  1  0
  6  7  2  0
  7  8  1  0
  8  9  2  0
  8 11  1  0
  9 10  1  0
 11 12  1  0
 11 13  1  0
 13 14  1  0
 14 15  2  0
 14 16  2  0
 14 17  1  0
 17 21  1  0
 17 18  2  0
 18 19  1  0
 19 20  1  0
 19 23  1  0
 20 21  2  0
 21 22  1  0
 23 24  1  0
  1 25  1  0
  1 26  1  0
  1 27  1  0
  2 28  1  0
  2 29  1  0
  3 30  1  0
  4 31  1  0
  4 32  1  0
  4 33  1  0
  6 34  1  0
  7 35  1  0
  9 36  1  0
 10 37  1  0
 11 38  1  0
 12 39  1  0
 12 40  1  0
 12 41  1  0
 13 42  1  0
 18 43  1  0
 22 44  1  0
 22 45  1  0
 22 46  1  0
 23 47  1  0
 23 48  1  0
 24 49  1  0
 24 50  1  0
 24 51  1  0
M  END
> <Name>
ZINC14229227

> <reference>
BDB50272061

> <quality>
0.714

> <status>
decoy

$$$$
ZINC04598093
  SciTegic06061311253D

 48 50  0  0  1  0            999 V2000
    0.2474    9.6455   -1.3359 C   0  0
   -0.6611    8.4556   -1.0201 C   0  0
   -0.6696    8.2070    0.4895 C   0  0
   -1.5781    7.0171    0.8053 C   0  0
   -1.5866    6.7684    2.3149 C   0  0
   -2.4351    5.6571    2.6098 O   0  0
   -2.5536    5.3039    3.9071 C   0  0
   -1.9518    5.9242    4.7640 O   0  0
   -3.3762    4.2144    4.2702 C   0  0
   -4.7077    4.3803    4.2392 C   0  0
   -5.5797    3.3784    4.5862 N   0  0
   -5.0502    2.2629    5.2188 C   0  0
   -5.6323    1.2786    5.8420 N   0  0
   -4.7520    0.4502    6.2900 N   0  0
   -3.5600    0.8485    5.9815 N   0  0
   -3.7116    2.0380    5.2717 N   0  0
   -2.7177    2.9214    4.6734 C   0  0  1  0  0  0
   -2.1237    2.2591    3.4570 C   0  0
   -0.7656    2.0075    3.4009 C   0  0
   -0.2208    1.3999    2.2851 C   0  0
   -1.0340    1.0440    1.2255 C   0  0
   -2.3913    1.3004    1.2794 C   0  0
   -2.9370    1.9028    2.3976 C   0  0
   -0.4400    0.3821    0.0089 C   0  0
   -5.2648    5.7128    3.8089 C   0  0
    1.2704    9.4277   -0.9951 H   0  0
   -0.1274   10.5416   -0.8196 H   0  0
    0.2540    9.8248   -2.4212 H   0  0
   -1.6838    8.6744   -1.3609 H   0  0
   -0.2863    7.5595   -1.5364 H   0  0
    0.3528    7.9877    0.8309 H   0  0
   -1.0452    9.1018    1.0075 H   0  0
   -2.6008    7.2359    0.4645 H   0  0
   -1.2034    6.1210    0.2889 H   0  0
   -0.5642    6.5491    2.6563 H   0  0
   -1.9622    7.6632    2.8329 H   0  0
   -6.5872    3.4519    4.3849 H   0  0
   -1.9212    3.1266    5.4038 H   0  0
   -0.1184    2.2908    4.2441 H   0  0
    0.8599    1.1996    2.2404 H   0  0
   -3.0371    1.0251    0.4326 H   0  0
   -4.0184    2.0986    2.4443 H   0  0
    0.0733   -0.5122    0.3920 H   0  0
    0.3367    1.0766   -0.3438 H   0  0
   -1.1768    0.1426   -0.7720 H   0  0
   -4.8519    5.8967    2.8061 H   0  0
   -4.8218    6.4534    4.4909 H   0  0
   -6.3642    5.7469    3.8173 H   0  0
  1  2  1  0
  2  3  1  0
  3  4  1  0
  4  5  1  0
  5  6  1  0
  6  7  1  0
  7  8  2  0
  7  9  1  0
  9 17  1  0
  9 10  2  0
 10 11  1  0
 10 25  1  0
 11 12  1  0
 12 16  1  0
 12 13  2  0
 13 14  1  0
 14 15  2  0
 15 16  1  0
 16 17  1  0
 17 18  1  0
 18 23  2  0
 18 19  1  0
 19 20  2  0
 20 21  1  0
 21 22  2  0
 21 24  1  0
 22 23  1  0
  1 26  1  0
  1 27  1  0
  1 28  1  0
  2 29  1  0
  2 30  1  0
  3 31  1  0
  3 32  1  0
  4 33  1  0
  4 34  1  0
  5 35  1  0
  5 36  1  0
 11 37  1  0
 17 38  1  0
 19 39  1  0
 20 40  1  0
 22 41  1  0
 23 42  1  0
 24 43  1  0
 24 44  1  0
 24 45  1  0
 25 46  1  0
 25 47  1  0
 25 48  1  0
M  END
> <Name>
ZINC04598093

> <reference>
BDB50272061

> <quality>
0.714

> <status>
decoy

$$$$
ZINC31903956
  SciTegic06061311253D

 50 51  0  0  0  0            999 V2000
   -0.0604    1.1126   -4.9886 C   0  0
   -0.7766    1.6061   -3.7298 C   0  0
   -0.0366    1.0992   -2.4903 C   0  0
   -0.7527    1.5927   -1.2315 C   0  0
   -0.0127    1.0858    0.0080 C   0  0
   -0.6816    1.5467    1.1837 O   0  0
   -0.1488    1.1821    2.3796 C   0  0
    0.9944    0.3969    2.4206 C   0  0
    1.5339    0.0277    3.6374 C   0  0
    0.9354    0.4396    4.8140 C   0  0
   -0.2039    1.2216    4.7758 C   0  0
   -0.7437    1.5991    3.5612 C   0  0
   -2.1914    2.6024    3.5134 S   0  0
   -3.0910    1.9746    2.6101 O   0  0
   -2.5375    2.8806    4.8632 O   0  0
   -1.7632    4.0474    2.8271 N   0  0
   -1.2929    5.1693    3.6551 C   0  0
    0.0237    5.6885    3.0553 C   0  0
   -0.1702    5.9631    1.6657 O   0  0
   -0.5091    4.8152    0.8840 C   0  0
   -1.8477    4.2495    1.3720 C   0  0
    1.5259    0.0349    6.1401 C   0  0
    2.7756   -0.8252    3.6827 C   0  0
   -0.0452    0.0127   -4.9958 H   0  0
    0.9717    1.4930   -4.9975 H   0  0
   -0.5919    1.4767   -5.8802 H   0  0
   -0.7910    2.7060   -3.7233 H   0  0
   -1.8087    1.2257   -3.7209 H   0  0
   -0.0222   -0.0007   -2.4959 H   0  0
    0.9955    1.4795   -2.4970 H   0  0
   -0.7671    2.6926   -1.2250 H   0  0
   -1.7848    1.2124   -1.2225 H   0  0
    0.0017   -0.0141    0.0023 H   0  0
    1.0194    1.4661    0.0013 H   0  0
    1.4707    0.0687    1.4849 H   0  0
   -0.6811    1.5436    5.7131 H   0  0
   -1.1181    4.8233    4.6845 H   0  0
   -2.0433    5.9735    3.6498 H   0  0
    0.3249    6.6110    3.5732 H   0  0
    0.8080    4.9262    3.1727 H   0  0
   -0.5968    5.1038   -0.1738 H   0  0
    0.2738    4.0503    0.9938 H   0  0
   -2.0441    3.2876    0.8759 H   0  0
   -2.6541    4.9617    1.1429 H   0  0
    2.5648    0.3954    6.1128 H   0  0
    1.5622   -1.0642    6.1138 H   0  0
    0.9706    0.4169    7.0094 H   0  0
    3.5269   -0.2678    3.1040 H   0  0
    2.5242   -1.7273    3.1057 H   0  0
    3.1177   -1.0590    4.7017 H   0  0
  1  2  1  0
  2  3  1  0
  3  4  1  0
  4  5  1  0
  5  6  1  0
  6  7  1  0
  7 12  2  0
  7  8  1  0
  8  9  2  0
  9 10  1  0
  9 23  1  0
 10 11  2  0
 10 22  1  0
 11 12  1  0
 12 13  1  0
 13 14  2  0
 13 15  2  0
 13 16  1  0
 16 21  1  0
 16 17  1  0
 17 18  1  0
 18 19  1  0
 19 20  1  0
 20 21  1  0
  1 24  1  0
  1 25  1  0
  1 26  1  0
  2 27  1  0
  2 28  1  0
  3 29  1  0
  3 30  1  0
  4 31  1  0
  4 32  1  0
  5 33  1  0
  5 34  1  0
  8 35  1  0
 11 36  1  0
 17 37  1  0
 17 38  1  0
 18 39  1  0
 18 40  1  0
 20 41  1  0
 20 42  1  0
 21 43  1  0
 21 44  1  0
 22 45  1  0
 22 46  1  0
 22 47  1  0
 23 48  1  0
 23 49  1  0
 23 50  1  0
M  END
> <Name>
ZINC31903956

> <reference>
BDB50272061

> <quality>
0.708

> <status>
decoy

$$$$
ZINC19792787
  SciTegic06061311253D

 46 48  0  0  0  0            999 V2000
    4.5672   -3.4139   -1.3176 C   0  0
    3.5096   -2.7882   -0.8635 C   0  0
    2.4823   -2.2490   -1.8253 C   0  0
    1.1592   -2.7861   -1.4805 N   0  0
    1.1633   -4.2548   -1.5100 C   0  0
    1.2404   -4.7284   -2.9386 C   0  0
    2.1921   -5.5504   -3.3056 C   0  0
    0.7129   -2.2871   -0.1729 C   0  0
    0.4860   -0.7994   -0.2538 C   0  0
   -0.7584   -0.3052   -0.6072 C   0  0
   -0.9800    1.0679   -0.6858 C   0  0
    0.0305    1.9460   -0.4143 C   0  0
    1.2898    1.4632   -0.0569 C   0  0
    1.5241    0.0792    0.0253 C   0  0
    2.7411   -0.3851    0.3712 O   0  0
    3.7767    0.4100    0.6511 C   0  0
    3.6900    1.7648    0.6110 C   0  0
    2.4035    2.3810    0.2439 C   0  0
    2.2664    3.5910    0.1913 O   0  0
    4.8680    2.6074    0.9302 C   0  0
    5.2533    3.6283    0.0631 C   0  0
    6.3471    4.4128    0.3679 C   0  0
    7.0672    4.1802    1.5258 C   0  0
    6.6925    3.1650    2.3874 C   0  0
    5.5972    2.3777    2.0955 C   0  0
   -1.7714   -1.1665   -0.8801 O   0  5
    4.7054   -3.5457   -2.4009 H   0  0
    5.3170   -3.8075   -0.6156 H   0  0
    3.3714   -2.6564    0.2198 H   0  0
    2.4600   -1.1511   -1.7607 H   0  0
    2.7440   -2.5508   -2.8502 H   0  0
    0.2401   -4.6345   -1.0480 H   0  0
    2.0338   -4.6305   -0.9523 H   0  0
    0.4976   -4.3839   -3.6731 H   0  0
    2.9349   -5.8949   -2.5711 H   0  0
    2.2484   -5.8961   -4.3483 H   0  0
   -0.2261   -2.7859    0.1091 H   0  0
    1.4825   -2.4993    0.5839 H   0  0
   -1.9734    1.4468   -0.9678 H   0  0
   -0.1479    3.0296   -0.4772 H   0  0
    4.7376   -0.0502    0.9248 H   0  0
    4.6867    3.8084   -0.8624 H   0  0
    6.6468    5.2246   -0.3112 H   0  0
    7.9411    4.8049    1.7623 H   0  0
    7.2686    2.9848    3.3070 H   0  0
    5.3003    1.5705    2.7812 H   0  0
  1  2  2  0
  2  3  1  0
  3  4  1  0
  4  5  1  0
  4  8  1  0
  5  6  1  0
  6  7  2  0
  8  9  1  0
  9 14  2  0
  9 10  1  0
 10 11  2  0
 10 26  1  0
 11 12  1  0
 12 13  2  0
 13 18  1  0
 13 14  1  0
 14 15  1  0
 15 16  1  0
 16 17  2  0
 17 18  1  0
 17 20  1  0
 18 19  2  0
 20 25  2  0
 20 21  1  0
 21 22  2  0
 22 23  1  0
 23 24  2  0
 24 25  1  0
  1 27  1  0
  1 28  1  0
  2 29  1  0
  3 30  1  0
  3 31  1  0
  5 32  1  0
  5 33  1  0
  6 34  1  0
  7 35  1  0
  7 36  1  0
  8 37  1  0
  8 38  1  0
 11 39  1  0
 12 40  1  0
 16 41  1  0
 21 42  1  0
 22 43  1  0
 23 44  1  0
 24 45  1  0
 25 46  1  0
M  CHG  1  26  -1
M  END
> <Name>
ZINC19792787

> <reference>
BDB50272061

> <quality>
0.708

> <status>
decoy

$$$$
ZINC26910833
  SciTegic06061311253D

 39 42  0  0  0  0            999 V2000
   -1.4119    2.0548    8.2151 C   0  0
   -0.4707    1.4095    9.0070 C   0  0
    0.5557    0.7045    8.4434 C   0  0
    0.6638    0.6291    7.0584 C   0  0
   -0.2881    1.2896    6.2574 C   0  0
   -1.3292    1.9969    6.8516 C   0  0
    0.1275    0.9953    4.8793 C   0  0
    1.2103    0.2522    4.9698 N   0  0
    1.5381    0.0282    6.1906 N   0  0
   -0.5322    1.4470    3.6429 C   0  0
   -1.5327    2.1343    3.7042 O   0  0
   -0.0266    1.0982    2.4431 O   0  0
   -0.7288    1.5792    1.2668 C   0  0
   -0.0127    1.0858    0.0080 C   0  0
   -0.7527    1.5927   -1.2315 C   0  0
   -0.0473    1.1066   -2.4714 C   0  0
   -0.2803   -0.0125   -3.1096 N   0  0
    0.5840   -0.0235   -4.1517 C   0  0
    1.2842    1.0820   -4.0833 N   0  0
    0.9292    1.7404   -3.1285 O   0  0
    0.7138   -1.0828   -5.1732 C   0  0
    1.5609   -1.1465   -6.2479 C   0  0
    1.5038   -2.2478   -7.0714 C   0  0
    0.6051   -3.2305   -6.8014 C   0  0
   -0.1981   -2.6095   -5.3330 S   0  0
   -2.2303    2.6169    8.6887 H   0  0
   -0.5525    1.4666   10.1025 H   0  0
    1.2939    0.1984    9.0828 H   0  0
   -2.0799    2.5055    6.2289 H   0  0
    2.3530   -0.5310    6.4806 H   0  0
   -1.7606    1.1981    1.2742 H   0  0
   -0.7441    2.6791    1.2717 H   0  0
    1.0191    1.4669   -0.0002 H   0  0
    0.0025   -0.0141    0.0008 H   0  0
   -1.7846    1.2116   -1.2241 H   0  0
   -0.7679    2.6926   -1.2266 H   0  0
    2.2733   -0.3328   -6.4489 H   0  0
    2.1772   -2.3314   -7.9372 H   0  0
    0.4201   -4.1675   -7.3471 H   0  0
  1  6  1  0
  1  2  2  0
  2  3  1  0
  3  4  2  0
  4  9  1  0
  4  5  1  0
  5  6  2  0
  5  7  1  0
  7  8  2  0
  7 10  1  0
  8  9  1  0
 10 11  2  0
 10 12  1  0
 12 13  1  0
 13 14  1  0
 14 15  1  0
 15 16  1  0
 16 20  1  0
 16 17  2  0
 17 18  1  0
 18 19  2  0
 18 21  1  0
 19 20  1  0
 21 25  1  0
 21 22  2  0
 22 23  1  0
 23 24  2  0
 24 25  1  0
  1 26  1  0
  2 27  1  0
  3 28  1  0
  6 29  1  0
  9 30  1  0
 13 31  1  0
 13 32  1  0
 14 33  1  0
 14 34  1  0
 15 35  1  0
 15 36  1  0
 22 37  1  0
 23 38  1  0
 24 39  1  0
M  END
> <Name>
ZINC26910833

> <reference>
BDB50272061

> <quality>
0.707

> <status>
decoy

$$$$
ZINC24074141
  SciTegic06061311253D

 31 32  0  0  0  0            999 V2000
   -0.0127    1.0858    0.0080 C   0  0
   -0.6816    1.5467    1.1837 O   0  0
   -0.7875    2.8928    1.3463 C   0  0
   -0.2602    3.7466    0.3969 C   0  0
   -0.3709    5.1297    0.5664 C   0  0
   -1.0147    5.6429    1.6959 C   0  0
   -1.5387    4.7852    2.6395 C   0  0
   -1.4330    3.4104    2.4678 C   0  0
   -1.9553    2.5693    3.3974 O   0  0
   -1.0991    2.1787    4.4728 C   0  0
   -2.3381    5.4241    4.0418 Cl  0  0
    0.1908    6.0453   -0.4440 C   0  0
    0.7505    5.5977   -1.4252 O   0  0
    0.0832    7.3784   -0.2791 O   0  0
    0.6592    8.2191   -1.3134 C   0  0
    0.4439    9.6683   -0.9604 C   0  0
   -0.6543   10.3727   -1.3538 C   0  0
   -0.3226   11.9226   -0.6548 S   0  0
    1.0674   11.6019    0.0213 N   0  0
    1.3029   10.3682   -0.2493 N   0  0
   -2.0165    9.8566   -2.2981 Cl  0  0
    0.9922    1.5328    0.0286 H   0  0
   -0.5561    1.5166   -0.8459 H   0  0
    0.0332   -0.0116   -0.0529 H   0  0
    0.2458    3.3389   -0.4907 H   0  0
   -1.1032    6.7309    1.8319 H   0  0
   -0.7729    3.1085    4.9618 H   0  0
   -0.2161    1.7123    4.0114 H   0  0
   -1.5917    1.4986    5.1833 H   0  0
    0.1747    8.0012   -2.2766 H   0  0
    1.7378    8.0176   -1.3915 H   0  0
  1  2  1  0
  2  3  1  0
  3  8  2  0
  3  4  1  0
  4  5  2  0
  5  6  1  0
  5 12  1  0
  6  7  2  0
  7  8  1  0
  7 11  1  0
  8  9  1  0
  9 10  1  0
 12 13  2  0
 12 14  1  0
 14 15  1  0
 15 16  1  0
 16 20  1  0
 16 17  2  0
 17 18  1  0
 17 21  1  0
 18 19  1  0
 19 20  2  0
  1 22  1  0
  1 23  1  0
  1 24  1  0
  4 25  1  0
  6 26  1  0
 10 27  1  0
 10 28  1  0
 10 29  1  0
 15 30  1  0
 15 31  1  0
M  END
> <Name>
ZINC24074141

> <reference>
BDB50272061

> <quality>
0.705

> <status>
decoy

$$$$
ZINC05450498
  SciTegic06061311253D

 41 42  0  0  1  0            999 V2000
    0.0021   -0.0041    0.0020 C   0  0
   -0.0187    1.5258    0.0104 C   0  0
   -0.8677    2.1108    1.5029 S   0  0
   -0.8089    3.8665    1.3663 C   0  0
   -0.2806    4.6138    0.4161 N   0  0
   -0.3469    5.9849    0.5074 N   0  0
   -0.9384    6.5458    1.5446 C   0  0
   -1.4557    5.1102    2.4733 S   0  0
   -1.1647    8.2542    1.9118 S   0  0
   -0.3852    9.1102    0.5152 C   0  0  1  0  0  0
   -1.1584    8.8008   -0.7683 C   0  0
   -0.4005   10.5962    0.7651 C   0  0
   -1.1791   11.0685    1.5661 O   0  0
    0.4510   11.4005    0.0983 N   0  5
    0.4362   12.8451    0.3412 C   0  0  2  0  0  0
   -0.9458   13.4056   -0.0007 C   0  0
   -0.9613   14.9143    0.2530 C   0  0
    0.0943   15.5899   -0.6245 C   0  0
    1.4763   15.0294   -0.2827 C   0  0
    1.4918   13.5207   -0.5363 C   0  0
    0.7352   13.1075    1.7584 C   0  0
    0.9660   13.3100    2.8521 N   0  0
   -1.0294   -0.3860    0.0095 H   0  0
    0.5343   -0.3696    0.8926 H   0  0
    0.5168   -0.3596   -0.9028 H   0  0
    1.0132    1.9068    0.0032 H   0  0
   -0.5509    1.8913   -0.8802 H   0  0
    0.6545    8.7670    0.4087 H   0  0
   -2.1982    9.1440   -0.6632 H   0  0
   -1.1476    7.7163   -0.9519 H   0  0
   -0.6863    9.3195   -1.6157 H   0  0
   -1.7056   12.9207    0.6298 H   0  0
   -1.1691   13.2101   -1.0599 H   0  0
   -1.9547   15.3175    0.0067 H   0  0
   -0.7377   15.1115    1.3118 H   0  0
    0.0842   16.6747   -0.4427 H   0  0
   -0.1288   15.3935   -1.6836 H   0  0
    2.2353   15.5146   -0.9140 H   0  0
    1.7008   15.2248    0.7763 H   0  0
    2.4855   13.1183   -0.2902 H   0  0
    1.2692   13.3254   -1.5957 H   0  0
  1  2  1  0
  2  3  1  0
  3  4  1  0
  4  8  1  0
  4  5  2  0
  5  6  1  0
  6  7  2  0
  7  8  1  0
  7  9  1  0
  9 10  1  0
 10 11  1  0
 10 12  1  0
 12 13  2  0
 12 14  1  0
 14 15  1  0
 15 20  1  0
 15 16  1  0
 15 21  1  0
 16 17  1  0
 17 18  1  0
 18 19  1  0
 19 20  1  0
 21 22  3  0
  1 23  1  0
  1 24  1  0
  1 25  1  0
  2 26  1  0
  2 27  1  0
 10 28  1  0
 11 29  1  0
 11 30  1  0
 11 31  1  0
 16 32  1  0
 16 33  1  0
 17 34  1  0
 17 35  1  0
 18 36  1  0
 18 37  1  0
 19 38  1  0
 19 39  1  0
 20 40  1  0
 20 41  1  0
M  CHG  1  14  -1
M  END
> <Name>
ZINC05450498

> <reference>
BDB50272061

> <quality>
0.702

> <status>
decoy

$$$$
ZINC29748636
  SciTegic06061311253D

 41 42  0  0  0  0            999 V2000
   -1.1547    1.8642   -4.7286 C   0  0
   -0.0756    1.1242   -4.0697 N   0  3
    0.1133    0.9773   -2.7235 C   0  0
    1.1980    0.2468   -2.5330 N   0  0
    1.7166   -0.1146   -3.7107 C   0  0
    2.7096   -0.8022   -3.8683 O   0  5
    0.9580    0.4082   -4.6960 N   0  0
   -0.9061    1.6594   -1.4585 S   0  0
   -0.0308    1.0599    0.0080 C   0  0
   -0.7437    1.5350    1.2478 C   0  0
   -1.7450    2.2123    1.1496 O   0  0
   -0.2685    1.2074    2.4657 N   0  0
   -0.9616    1.6692    3.6709 C   0  0
   -0.2327    1.1701    4.8919 C   0  0
    0.7697    1.7598    5.5882 C   0  0
    1.2927    1.1100    6.6903 C   0  0
    0.7879   -0.0977    7.0424 C   0  0
   -0.4709   -0.3477    5.8012 S   0  0
    1.2496   -1.1458    8.3813 S   0  0
    0.8649   -2.4641    8.0165 O   0  0
    2.5882   -0.8085    8.7182 O   0  0
    0.3136   -0.7220    9.6800 N   0  0
   -0.9783   -1.3779    9.8971 C   0  0
    0.7775    0.3088   10.6120 C   0  0
   -1.0702    2.8587   -4.2662 H   0  0
   -2.0527    1.4078   -4.2866 H   0  0
   -1.1517    1.8777   -5.8285 H   0  0
    1.5863   -0.0065   -1.6132 H   0  0
    0.9984    1.4481    0.0063 H   0  0
   -0.0080   -0.0398   -0.0025 H   0  0
    0.5820    0.6324    2.5491 H   0  0
   -0.9845    2.7689    3.6822 H   0  0
   -1.9908    1.2809    3.6749 H   0  0
    1.1611    2.7408    5.2808 H   0  0
    2.1065    1.5662    7.2730 H   0  0
   -0.7391   -2.4509    9.9345 H   0  0
   -1.5308   -1.2139    8.9602 H   0  0
   -1.5312   -1.0336   10.7835 H   0  0
    0.9685    1.1871    9.9779 H   0  0
    1.7601   -0.0500   10.9521 H   0  0
    0.0917    0.5254   11.4443 H   0  0
  1  2  1  0
  2  3  2  0
  2  7  1  0
  3  4  1  0
  3  8  1  0
  4  5  1  0
  5  6  1  0
  5  7  2  0
  8  9  1  0
  9 10  1  0
 10 11  2  0
 10 12  1  0
 12 13  1  0
 13 14  1  0
 14 18  1  0
 14 15  2  0
 15 16  1  0
 16 17  2  0
 17 18  1  0
 17 19  1  0
 19 20  2  0
 19 21  2  0
 19 22  1  0
 22 23  1  0
 22 24  1  0
  1 25  1  0
  1 26  1  0
  1 27  1  0
  4 28  1  0
  9 29  1  0
  9 30  1  0
 12 31  1  0
 13 32  1  0
 13 33  1  0
 15 34  1  0
 16 35  1  0
 23 36  1  0
 23 37  1  0
 23 38  1  0
 24 39  1  0
 24 40  1  0
 24 41  1  0
M  CHG  2   2   1   6  -1
M  END
> <Name>
ZINC29748636

> <reference>
BDB50021153

> <quality>
0.875

> <status>
decoy

$$$$
ZINC21454679
  SciTegic06061311253D

 43 45  0  0  0  0            999 V2000
   -0.0127    1.0858    0.0080 C   0  0
   -0.7181    1.5718    1.2479 C   0  0
   -0.1398    1.8395    2.4416 C   0  0
   -1.1422    2.2638    3.3199 C   0  0
   -2.2815    2.2513    2.6766 N   0  0
   -2.0387    1.8236    1.3649 N   0  0
   -3.0418    1.6732    0.3078 C   0  0
   -3.6066    0.2766    0.3464 C   0  0
   -4.6741   -0.1268    1.0509 N   0  0
   -4.8067   -1.4117    0.7896 C   0  0
   -3.8197   -1.7368   -0.0590 O   0  0
   -3.1503   -0.7548   -0.3021 N   0  0
   -5.8454   -2.3216    1.3289 C   0  0
   -6.6874   -1.8964    2.0946 O   0  0
   -5.8556   -3.6206    0.9698 N   0  0
   -6.8820   -4.5199    1.5028 C   0  0
   -6.6685   -5.9271    0.9416 C   0  0
   -7.6949   -6.8263    1.4745 N   0  0
   -7.7052   -8.1253    1.1154 C   0  0
   -6.8618   -8.5513    0.3485 O   0  0
   -8.7327   -9.0255    1.6490 C   0  0
   -8.8576  -10.3561    1.3689 C   0  0
   -9.9690  -10.8179    2.0912 C   0  0
  -10.4675   -9.7623    2.7719 C   0  0
   -9.7167   -8.6854    2.5071 O   0  0
   -0.9478    2.6592    4.7330 N   0  0
    0.1658    2.6308    5.2257 O   0  0
   -1.9013    3.0130    5.4032 O   0  0
   -0.3017    1.8368   -0.7420 H   0  0
   -0.5746    0.1749   -0.2459 H   0  0
    1.0733    0.9327    0.0927 H   0  0
    0.9297    1.7409    2.6792 H   0  0
   -3.8521    2.4003    0.4649 H   0  0
   -2.5737    1.8517   -0.6715 H   0  0
   -5.1418   -3.9811    0.3206 H   0  0
   -6.8106   -4.5486    2.6001 H   0  0
   -7.8779   -4.1562    1.2096 H   0  0
   -6.7401   -5.8991   -0.1557 H   0  0
   -5.6734   -6.2929    1.2349 H   0  0
   -8.4087   -6.4658    2.1236 H   0  0
   -8.2123  -10.9509    0.7057 H   0  0
  -10.3606  -11.8458    2.1013 H   0  0
  -11.3454   -9.7840    3.4344 H   0  0
  1  2  1  0
  2  6  1  0
  2  3  2  0
  3  4  1  0
  4  5  2  0
  4 26  1  0
  5  6  1  0
  6  7  1  0
  7  8  1  0
  8 12  2  0
  8  9  1  0
  9 10  2  0
 10 11  1  0
 10 13  1  0
 11 12  1  0
 13 14  2  0
 13 15  1  0
 15 16  1  0
 16 17  1  0
 17 18  1  0
 18 19  1  0
 19 20  2  0
 19 21  1  0
 21 25  1  0
 21 22  2  0
 22 23  1  0
 23 24  2  0
 24 25  1  0
 26 27  2  0
 26 28  2  0
  1 29  1  0
  1 30  1  0
  1 31  1  0
  3 32  1  0
  7 33  1  0
  7 34  1  0
 15 35  1  0
 16 36  1  0
 16 37  1  0
 17 38  1  0
 17 39  1  0
 18 40  1  0
 22 41  1  0
 23 42  1  0
 24 43  1  0
M  END
> <Name>
ZINC21454679

> <reference>
BDB50021153

> <quality>
0.873

> <status>
decoy

$$$$
ZINC26339782
  SciTegic06061311253D

 54 56  0  0  0  0            999 V2000
   -4.5098   -5.2764    8.8741 C   0  0
   -4.7621   -4.0196    9.6665 C   0  0
   -5.1123   -4.1017   11.0002 C   0  0
   -5.3444   -2.9491   11.7276 C   0  0
   -5.2263   -1.7107   11.1232 C   0  0
   -4.8714   -1.6217    9.7916 C   0  0
   -4.6432   -2.7779    9.0566 C   0  0
   -4.2886   -2.6913    7.7058 N   0  0
   -4.6374   -1.6068    6.9856 C   0  0
   -5.3433   -0.7527    7.4789 O   0  0
   -4.1504   -1.4553    5.5676 C   0  0
   -4.6858   -0.1474    4.9814 C   0  0
   -4.2110    0.0002    3.5991 N   0  3
   -4.8903    1.1157    2.9253 C   0  0
   -4.4274    1.1859    1.4681 C   0  0
   -2.9687    1.3598    1.4280 N   0  0
   -2.2895    0.2443    2.1018 C   0  0
   -2.7524    0.1741    3.5590 C   0  0
   -2.4940    1.5074    0.0457 C   0  0
   -1.0462    1.9258    0.0538 C   0  0
    0.0340    1.1087    0.0503 C   0  0
    1.1341    1.9968    0.0551 C   0  0
    0.6357    3.1992    0.0657 N   0  0
   -0.5734    3.1800    0.0680 O   0  0
    2.5945    1.6249    0.0496 C   0  0
   -5.4752   -0.4793   11.9058 N   0  0
   -5.7838   -0.5569   13.0815 O   0  0
   -5.3715    0.6116   11.3742 O   0  0
   -3.4917   -5.1616    8.4736 H   0  0
   -5.2024   -5.2199    8.0214 H   0  0
   -4.6320   -6.2021    9.4556 H   0  0
   -5.2066   -5.0851   11.4840 H   0  0
   -5.6236   -3.0172   12.7894 H   0  0
   -4.7696   -0.6362    9.3136 H   0  0
   -3.7610   -3.4564    7.2618 H   0  0
   -3.0506   -1.4380    5.5574 H   0  0
   -4.5094   -2.3013    4.9631 H   0  0
   -5.7856   -0.1643    4.9909 H   0  0
   -4.3268    0.6999    5.5841 H   0  0
   -4.4419   -0.8659    3.0917 H   0  0
   -5.9782    0.9559    2.9568 H   0  0
   -4.6424    2.0589    3.4341 H   0  0
   -4.9117    2.0381    0.9688 H   0  0
   -4.6997    0.2539    0.9512 H   0  0
   -1.2015    0.4029    2.0705 H   0  0
   -2.5383   -0.6984    1.5925 H   0  0
   -2.2663   -0.6778    4.0569 H   0  0
   -2.4795    1.1062    4.0754 H   0  0
   -2.5946    0.5471   -0.4812 H   0  0
   -3.0932    2.2728   -0.4692 H   0  0
    0.0514    0.0088    0.0450 H   0  0
    2.6613    0.9689   -0.8309 H   0  0
    2.6645    0.9555    0.9197 H   0  0
    3.3207    2.4511    0.0546 H   0  0
  1  2  1  0
  2  7  2  0
  2  3  1  0
  3  4  2  0
  4  5  1  0
  5  6  2  0
  5 26  1  0
  6  7  1  0
  7  8  1  0
  8  9  1  0
  9 10  2  0
  9 11  1  0
 11 12  1  0
 12 13  1  0
 13 18  1  0
 13 14  1  0
 14 15  1  0
 15 16  1  0
 16 17  1  0
 16 19  1  0
 17 18  1  0
 19 20  1  0
 20 24  1  0
 20 21  2  0
 21 22  1  0
 22 23  2  0
 22 25  1  0
 23 24  1  0
 26 27  2  0
 26 28  2  0
  1 29  1  0
  1 30  1  0
  1 31  1  0
  3 32  1  0
  4 33  1  0
  6 34  1  0
  8 35  1  0
 11 36  1  0
 11 37  1  0
 12 38  1  0
 12 39  1  0
 13 40  1  0
 14 41  1  0
 14 42  1  0
 15 43  1  0
 15 44  1  0
 17 45  1  0
 17 46  1  0
 18 47  1  0
 18 48  1  0
 19 49  1  0
 19 50  1  0
 21 51  1  0
 25 52  1  0
 25 53  1  0
 25 54  1  0
M  CHG  1  13   1
M  END
> <Name>
ZINC26339782

> <reference>
BDB50021153

> <quality>
0.838

> <status>
decoy

$$$$
ZINC28984562
  SciTegic06061311253D

 41 42  0  0  0  0            999 V2000
   -3.9724   -2.1664   -0.0063 C   0  0
   -3.7736   -0.6726    0.0034 C   0  0
   -4.8472    0.1827    0.0195 C   0  0
   -4.0106    1.7618    0.0247 S   0  0
   -2.3833    1.1564    0.0058 C   0  0
   -2.5679   -0.1510   -0.0081 N   0  0
   -1.1907    1.8667    0.0004 N   0  0
   -0.0146    1.2087   -0.0149 C   0  0
    0.0019   -0.0039   -0.0240 O   0  0
    1.2801    1.9800   -0.0270 C   0  0
    2.4563    1.0017   -0.0503 C   0  0
    4.0147    1.9301   -0.0649 S   0  0
    4.0962    2.6524   -1.2858 O   0  0
    4.1298    2.6346    1.1638 O   0  0
    5.2642    0.6152   -0.0916 C   0  0
   -6.2876   -0.1175    0.0300 C   0  0
   -6.8379   -1.3120    0.0262 N   0  0
   -8.1184   -1.2051    0.0327 N   0  0
   -8.4671    0.0607    0.0411 C   0  0
   -7.3155    0.7991    0.0457 N   0  0
   -7.1998    2.2595    0.0611 C   0  0
   -7.1679    2.7758   -1.3543 C   0  0
   -8.0308    3.6828   -1.7402 C   0  0
  -10.1124    0.6911    0.0521 S   0  0
   -3.4139   -2.5303    0.8687 H   0  0
   -3.4371   -2.5157   -0.9015 H   0  0
   -5.0275   -2.4774    0.0050 H   0  0
   -1.2046    2.8966    0.0081 H   0  0
    1.3179    2.6193   -0.9213 H   0  0
    1.3433    2.6068    0.8748 H   0  0
    2.4195    0.3623    0.8441 H   0  0
    2.3955    0.3748   -0.9521 H   0  0
    5.2152    0.0004   -1.0024 H   0  0
    5.2400   -0.0129    0.8112 H   0  0
    6.2452    1.1127   -0.1014 H   0  0
   -6.2728    2.5496    0.5774 H   0  0
   -8.0636    2.6904    0.5886 H   0  0
   -6.4201    2.3911   -2.0634 H   0  0
   -8.7786    4.0675   -1.0311 H   0  0
   -8.0075    4.0597   -2.7734 H   0  0
  -10.6666    0.0842    1.1482 H   0  0
  1  2  1  0
  2  6  1  0
  2  3  2  0
  3  4  1  0
  3 16  1  0
  4  5  1  0
  5  6  2  0
  5  7  1  0
  7  8  1  0
  8  9  2  0
  8 10  1  0
 10 11  1  0
 11 12  1  0
 12 13  2  0
 12 14  2  0
 12 15  1  0
 16 20  1  0
 16 17  2  0
 17 18  1  0
 18 19  2  0
 19 24  1  0
 19 20  1  0
 20 21  1  0
 21 22  1  0
 22 23  2  0
  1 25  1  0
  1 26  1  0
  1 27  1  0
  7 28  1  0
 10 29  1  0
 10 30  1  0
 11 31  1  0
 11 32  1  0
 15 33  1  0
 15 34  1  0
 15 35  1  0
 21 36  1  0
 21 37  1  0
 22 38  1  0
 23 39  1  0
 23 40  1  0
 24 41  1  0
M  END
> <Name>
ZINC28984562

> <reference>
BDB50021153

> <quality>
0.838

> <status>
decoy

$$$$
ZINC01618908
  SciTegic06061311253D

 46 48  0  0  1  0            999 V2000
   -6.8499   -0.5914   -1.0153 C   0  0
   -5.5546   -1.3572   -0.9318 C   0  0
   -4.7448   -1.1661    0.0799 C   0  0
   -3.3761   -1.7968    0.0791 C   0  0
   -2.3641   -0.7678    0.3308 N   0  0
   -1.0244   -1.1115    0.3762 C   0  0
   -0.0400   -0.1375    0.6165 C   0  0
    1.3035   -0.5470    0.6518 C   0  0
    1.5931   -1.8298    0.4582 N   0  0
    0.6376   -2.7072    0.2360 C   0  0
   -0.6387   -2.3700    0.1936 N   0  0
    2.0376    0.5852    0.8997 N   0  0
    1.1622    1.6245    1.0069 C   0  0
   -0.0562    1.1984    0.8404 N   0  0
    3.4950    0.6627    1.0268 C   0  0  2  0  0  0
    3.9007    0.3281    2.4646 C   0  0
    5.4194    0.4699    2.6046 C   0  0
    5.8279    1.8900    2.2008 C   0  0
    5.3478    2.1643    0.7732 C   0  0
    3.9317    1.9849    0.7056 O   0  0
   -5.1911   -2.3429   -2.0122 C   0  0
   -6.2606   -3.2744   -2.1867 O   0  0
   -6.2141   -4.4716   -3.2623 P   0  0
   -5.0008   -5.2890   -3.0384 O   0  0
   -7.5221   -5.3952   -3.0942 O   0  5
   -6.1794   -3.8558   -4.7495 O   0  5
   -6.5612    0.4694   -0.9793 H   0  0
   -7.3812   -0.8194   -0.0795 H   0  0
   -7.4477   -0.8332   -1.9065 H   0  0
   -5.0638   -0.5453    0.9301 H   0  0
   -3.3243   -2.5619    0.8677 H   0  0
   -3.1872   -2.2644   -0.8985 H   0  0
   -2.6497    0.2114    0.4740 H   0  0
    0.9123   -3.7608    0.0797 H   0  0
    1.4440    2.6692    1.2049 H   0  0
    3.9613   -0.0560    0.3369 H   0  0
    3.6057   -0.7052    2.6998 H   0  0
    3.4020    1.0213    3.1580 H   0  0
    5.7112    0.2869    3.6493 H   0  0
    5.9198   -0.2567    1.9476 H   0  0
    6.9230    1.9848    2.2440 H   0  0
    5.3672    2.6145    2.8884 H   0  0
    5.5999    3.1979    0.4935 H   0  0
    5.8388    1.4661    0.0794 H   0  0
   -5.0164   -1.8051   -2.9557 H   0  0
   -4.2778   -2.8841   -1.7241 H   0  0
  1  2  1  0
  2  3  2  0
  2 21  1  0
  3  4  1  0
  4  5  1  0
  5  6  1  0
  6 11  1  0
  6  7  2  0
  7 14  1  0
  7  8  1  0
  8  9  2  0
  8 12  1  0
  9 10  1  0
 10 11  2  0
 12 13  1  0
 12 15  1  0
 13 14  2  0
 15 20  1  0
 15 16  1  0
 16 17  1  0
 17 18  1  0
 18 19  1  0
 19 20  1  0
 21 22  1  0
 22 23  1  0
 23 24  2  0
 23 25  1  0
 23 26  1  0
  1 27  1  0
  1 28  1  0
  1 29  1  0
  3 30  1  0
  4 31  1  0
  4 32  1  0
  5 33  1  0
 10 34  1  0
 13 35  1  0
 15 36  1  0
 16 37  1  0
 16 38  1  0
 17 39  1  0
 17 40  1  0
 18 41  1  0
 18 42  1  0
 19 43  1  0
 19 44  1  0
 21 45  1  0
 21 46  1  0
M  CHG  2  25  -1  26  -1
M  END
> <Name>
ZINC01618908

> <reference>
BDB50021153

> <quality>
0.794

> <status>
decoy

$$$$
ZINC15799771
  SciTegic06061311253D

 50 51  0  0  0  0            999 V2000
   12.0504    2.1153   -0.1016 C   0  0
   10.7561    2.9310   -0.0849 C   0  0
    9.5556    1.9826   -0.0785 C   0  0
    8.2613    2.7983   -0.0618 C   0  0
    7.1117    1.8902   -0.0557 N   0  0
    5.8595    2.3883   -0.0411 C   0  0
    5.6839    3.5909   -0.0329 O   0  0
    4.8019    1.5528   -0.0355 N   0  0
    3.5497    2.0510   -0.0208 C   0  0
    3.3746    3.2506   -0.0127 O   0  0
    2.3672    1.1168   -0.0145 C   0  0
    1.1389    1.8910    0.0013 O   0  0
   -0.0143    1.2041    0.0087 C   0  0
    0.0021   -0.0041    0.0020 O   0  0
   -1.3295    1.9397    0.0189 C   0  0
   -2.4300    0.9727    0.0189 N   0  0
   -3.0992    0.5201   -1.0594 C   0  0
   -4.0166   -0.3340   -0.6830 N   0  0
   -3.9865   -0.4747    0.6447 C   0  0
   -2.9741    0.3478    1.1230 C   0  0
   -2.7274    0.3979    2.5119 C   0  0
   -1.8485    1.1147    2.9561 O   0  0
   -3.4724   -0.3623    3.3413 N   0  0
   -4.4453   -1.1577    2.8643 C   0  0
   -5.0971   -1.8281    3.6416 O   0  0
   -4.7167   -1.2305    1.5475 N   0  0
   -5.7855   -2.1106    1.0686 C   0  0
   -3.2174   -0.3197    4.7833 C   0  0
   12.0766    1.4857   -1.0032 H   0  0
   12.0938    1.4761    0.7926 H   0  0
   12.9140    2.7966   -0.1062 H   0  0
   10.7306    3.5600    0.8171 H   0  0
   10.7127    3.5702   -0.9791 H   0  0
    9.5803    1.3535   -0.9805 H   0  0
    9.5967    1.3433    0.8157 H   0  0
    8.2358    3.4273    0.8402 H   0  0
    8.2179    3.4376   -0.9559 H   0  0
    7.2605    0.8710   -0.0626 H   0  0
    4.9507    0.5336   -0.0425 H   0  0
    2.3919    0.4877   -0.9165 H   0  0
    2.4083    0.4775    0.8797 H   0  0
   -1.4018    2.5763   -0.8753 H   0  0
   -1.3925    2.5660    0.9210 H   0  0
   -2.9040    0.8227   -2.0988 H   0  0
   -5.3013   -2.7772    0.3398 H   0  0
   -6.4654   -1.4539    0.5060 H   0  0
   -6.3010   -2.6644    1.8671 H   0  0
   -3.3223    0.7383    5.0656 H   0  0
   -2.1565   -0.5864    4.8986 H   0  0
   -3.8787   -0.9755    5.3687 H   0  0
  1  2  1  0
  2  3  1  0
  3  4  1  0
  4  5  1  0
  5  6  1  0
  6  7  2  0
  6  8  1  0
  8  9  1  0
  9 10  2  0
  9 11  1  0
 11 12  1  0
 12 13  1  0
 13 14  2  0
 13 15  1  0
 15 16  1  0
 16 20  1  0
 16 17  1  0
 17 18  2  0
 18 19  1  0
 19 26  1  0
 19 20  2  0
 20 21  1  0
 21 22  2  0
 21 23  1  0
 23 24  1  0
 23 28  1  0
 24 25  2  0
 24 26  1  0
 26 27  1  0
  1 29  1  0
  1 30  1  0
  1 31  1  0
  2 32  1  0
  2 33  1  0
  3 34  1  0
  3 35  1  0
  4 36  1  0
  4 37  1  0
  5 38  1  0
  8 39  1  0
 11 40  1  0
 11 41  1  0
 15 42  1  0
 15 43  1  0
 17 44  1  0
 27 45  1  0
 27 46  1  0
 27 47  1  0
 28 48  1  0
 28 49  1  0
 28 50  1  0
M  END
> <Name>
ZINC15799771

> <reference>
BDB50021153

> <quality>
0.794

> <status>
decoy

$$$$
ZINC26853693
  SciTegic06061311253D

 48 50  0  0  1  0            999 V2000
    4.4214    0.3178   -2.1178 C   0  0
    4.1180   -0.9495   -1.4397 N   0  0
    3.7093   -0.7173   -0.0480 C   0  0
    2.3972    0.0237   -0.0268 C   0  0
    1.2073   -0.6801   -0.0161 C   0  0
    0.0021   -0.0041    0.0020 C   0  0
   -0.0167    1.3828    0.0096 C   0  0
    1.1794    2.0902    0.0020 C   0  0
    2.3855    1.4056   -0.0177 C   0  0
    1.1838    3.4512    0.0176 O   0  0
   -0.0397    4.1029   -0.3403 C   0  0
   -1.1886    3.4131    0.4076 C   0  0
   -1.2115    2.0347    0.0189 O   0  0
    5.2617   -1.8690   -1.5061 C   0  0
    5.4969   -2.2758   -2.9379 C   0  0
    4.7821   -1.8424   -3.8167 O   0  0
    6.5015   -3.1213   -3.2420 N   0  0
    6.7301   -3.5167   -4.6340 C   0  0
    7.9034   -4.4600   -4.7020 C   0  0
    7.6934   -5.8117   -4.8967 C   0  0
    8.7696   -6.6769   -4.9635 C   0  0
   10.0579   -6.1936   -4.8262 C   0  0
   10.2728   -4.8440   -4.6261 C   0  0
    9.1947   -3.9728   -4.5635 C   0  0
    9.4035   -2.6445   -4.3663 O   0  5
    8.5421   -8.1237   -5.1768 N   0  0
    9.4892   -8.8876   -5.2313 O   0  0
    7.4078   -8.5505   -5.2980 O   0  0
    5.2335    0.8251   -1.5763 H   0  0
    3.5243    0.9542   -2.0998 H   0  0
    4.7256    0.1287   -3.1578 H   0  0
    3.5929   -1.6828    0.4661 H   0  0
    4.4760   -0.1185    0.4655 H   0  0
    1.2199   -1.7800   -0.0220 H   0  0
   -0.9432   -0.5665    0.0104 H   0  0
    3.3337    1.9632   -0.0261 H   0  0
    0.0063    5.1626   -0.0489 H   0  0
   -0.2023    4.0176   -1.4249 H   0  0
   -2.1436    3.8886    0.1394 H   0  0
   -1.0215    3.4887    1.4922 H   0  0
    5.0501   -2.7634   -0.9017 H   0  0
    6.1593   -1.3668   -1.1160 H   0  0
    7.1085   -3.4894   -2.4957 H   0  0
    5.8330   -4.0194   -5.0246 H   0  0
    6.9430   -2.6236   -5.2398 H   0  0
    6.6692   -6.1997   -4.9986 H   0  0
   10.9123   -6.8846   -4.8764 H   0  0
   11.2978   -4.4601   -4.5165 H   0  0
  1  2  1  0
  2  3  1  0
  2 14  1  0
  3  4  1  0
  4  9  2  0
  4  5  1  0
  5  6  2  0
  6  7  1  0
  7 13  1  0
  7  8  2  0
  8  9  1  0
  8 10  1  0
 10 11  1  0
 11 12  1  0
 12 13  1  0
 14 15  1  0
 15 16  2  0
 15 17  1  0
 17 18  1  0
 18 19  1  0
 19 24  2  0
 19 20  1  0
 20 21  2  0
 21 22  1  0
 21 26  1  0
 22 23  2  0
 23 24  1  0
 24 25  1  0
 26 27  2  0
 26 28  2  0
  1 29  1  0
  1 30  1  0
  1 31  1  0
  3 32  1  0
  3 33  1  0
  5 34  1  0
  6 35  1  0
  9 36  1  0
 11 37  1  0
 11 38  1  0
 12 39  1  0
 12 40  1  0
 14 41  1  0
 14 42  1  0
 17 43  1  0
 18 44  1  0
 18 45  1  0
 20 46  1  0
 22 47  1  0
 23 48  1  0
M  CHG  1  25  -1
M  END
> <Name>
ZINC26853693

> <reference>
BDB50021153

> <quality>
0.786

> <status>
decoy

$$$$
ZINC15507966
  SciTegic06061311253D

 46 47  0  0  0  0            999 V2000
    6.6251   -0.5019   -2.2710 C   0  0
    5.1515   -0.0949   -2.3315 C   0  0
    4.3402   -1.0921   -1.6290 N   0  0
    3.8909   -2.2971   -2.3308 C   0  0
    2.5971   -1.9932   -3.0888 C   0  0
    3.9310   -0.8574   -0.0416 S   0  0
    4.9076    0.0187    0.5043 O   0  0
    3.6703   -2.1429    0.5050 O   0  0
    2.4019    0.0179   -0.0217 C   0  0
    1.2068   -0.6812   -0.0136 C   0  0
    0.0021   -0.0041    0.0020 C   0  0
   -0.0167    1.3790    0.0096 C   0  0
    1.1873    2.0899    0.0019 C   0  0
    2.3995    1.3964   -0.0138 C   0  0
    1.1773    3.5668    0.0095 C   0  0
    0.1204    4.1674    0.0224 O   0  0
    2.3398    4.2486    0.0020 N   0  0
    2.3302    5.6496    0.0092 N   0  0
    3.4928    6.3315    0.0018 C   0  0
    4.5495    5.7309   -0.0111 O   0  0
    3.4827    7.8098    0.0093 C   0  0
    4.6836    8.5299    0.0075 C   0  0
    4.6193    9.9120    0.0096 C   0  0
    3.3827   10.5324    0.0239 C   0  0
    2.2674    9.8278    0.0308 N   0  0
    2.2765    8.5109    0.0241 C   0  0
   -1.1945    2.0408    0.0188 F   0  0
    6.7555   -1.4833   -2.7504 H   0  0
    6.9472   -0.5618   -1.2209 H   0  0
    7.2349    0.2465   -2.7983 H   0  0
    5.0220    0.8864   -1.8516 H   0  0
    4.8293   -0.0350   -3.3816 H   0  0
    4.6658   -2.6173   -3.0428 H   0  0
    3.7079   -3.1005   -1.6020 H   0  0
    2.7785   -1.1907   -3.8189 H   0  0
    1.8211   -1.6729   -2.3780 H   0  0
    2.2592   -2.8976   -3.6160 H   0  0
    1.2162   -1.7811   -0.0196 H   0  0
   -0.9435   -0.5661    0.0084 H   0  0
    3.3505    1.9491   -0.0199 H   0  0
    3.2353    3.7397   -0.0090 H   0  0
    1.4347    6.1584    0.0201 H   0  0
    5.6531    8.0102    0.0045 H   0  0
    5.5417   10.5113    0.0000 H   0  0
    3.3286   11.6311    0.0296 H   0  0
    1.3250    7.9590    0.0302 H   0  0
  1  2  1  0
  2  3  1  0
  3  4  1  0
  3  6  1  0
  4  5  1  0
  6  7  2  0
  6  8  2  0
  6  9  1  0
  9 14  2  0
  9 10  1  0
 10 11  2  0
 11 12  1  0
 12 13  2  0
 12 27  1  0
 13 14  1  0
 13 15  1  0
 15 16  2  0
 15 17  1  0
 17 18  1  0
 18 19  1  0
 19 20  2  0
 19 21  1  0
 21 26  2  0
 21 22  1  0
 22 23  2  0
 23 24  1  0
 24 25  2  0
 25 26  1  0
  1 28  1  0
  1 29  1  0
  1 30  1  0
  2 31  1  0
  2 32  1  0
  4 33  1  0
  4 34  1  0
  5 35  1  0
  5 36  1  0
  5 37  1  0
 10 38  1  0
 11 39  1  0
 14 40  1  0
 17 41  1  0
 18 42  1  0
 22 43  1  0
 23 44  1  0
 24 45  1  0
 26 46  1  0
M  END
> <Name>
ZINC15507966

> <reference>
BDB50021153

> <quality>
0.779

> <status>
decoy

$$$$
ZINC27053601
  SciTegic06061311253D

 50 51  0  0  1  0            999 V2000
    3.7231    3.4433    1.7351 C   0  0
    3.7689    4.3618    0.5412 C   0  0
    4.8372    5.0757    0.1485 C   0  0
    4.4196    5.8223   -1.0457 C   0  0
    3.1014    5.4718   -1.2689 C   0  0
    2.7327    4.5982   -0.3152 N   0  0
    1.4040    3.9907   -0.2069 C   0  0  2  0  0  0
    1.1675    3.0651   -1.4021 C   0  0
    0.3400    5.0901   -0.1949 C   0  0
   -0.9454    4.5066    0.0273 O   0  0
   -2.0160    5.4527    0.0568 C   0  0
    2.2285    5.9805   -2.3871 C   0  0
    5.2329    6.7481   -1.8370 C   0  0
    4.7546    7.2995   -2.8064 O   0  0
    6.6638    7.0160   -1.4475 C   0  0
    7.2560    7.9693   -2.3892 N   0  0
    7.1721    9.2968   -2.1346 C   0  0
    7.7081   10.2114   -2.9827 C   0  0
    8.3608    9.7931   -4.1421 C   0  0
    8.4510    8.4288   -4.4106 C   0  0
    7.8798    7.5113   -3.4912 C   0  0
    7.9498    6.3126   -3.7004 O   0  0
    9.1312    7.9480   -5.6228 C   0  0
    9.5267    8.7430   -6.4543 O   0  0
    9.3163    6.6265   -5.8124 N   0  0
    7.5993   11.6555   -2.6765 N   0  0
    7.0293   12.0222   -1.6645 O   0  0
    8.0798   12.4771   -3.4365 O   0  0
    3.3934    2.4897    1.2970 H   0  0
    2.8648    3.8274    2.3058 H   0  0
    4.6498    3.3663    2.3227 H   0  0
    5.8278    5.0969    0.6263 H   0  0
    1.3413    3.4096    0.7250 H   0  0
    1.9319    2.2741   -1.4115 H   0  0
    1.2297    3.6454   -2.3345 H   0  0
    0.1700    2.6086   -1.3214 H   0  0
    0.5613    5.8059    0.6104 H   0  0
    0.3417    5.6142   -1.1620 H   0  0
   -2.0144    5.9853   -0.9056 H   0  0
   -1.7968    6.1767    0.8554 H   0  0
   -2.9849    4.9615    0.2299 H   0  0
    2.8222    5.7411   -3.2816 H   0  0
    2.2964    7.0717   -2.2658 H   0  0
    1.1981    5.5966   -2.4175 H   0  0
    6.6947    7.4374   -0.4319 H   0  0
    7.2338    6.0755   -1.4718 H   0  0
    6.6601    9.6404   -1.2237 H   0  0
    8.7975   10.5286   -4.8337 H   0  0
    8.9814    5.9533   -5.1084 H   0  0
    9.7926    6.2898   -6.6613 H   0  0
  1  2  1  0
  2  6  1  0
  2  3  2  0
  3  4  1  0
  4  5  2  0
  4 13  1  0
  5  6  1  0
  5 12  1  0
  6  7  1  0
  7  8  1  0
  7  9  1  0
  9 10  1  0
 10 11  1  0
 13 14  2  0
 13 15  1  0
 15 16  1  0
 16 21  1  0
 16 17  1  0
 17 18  2  0
 18 19  1  0
 18 26  1  0
 19 20  2  0
 20 21  1  0
 20 23  1  0
 21 22  2  0
 23 24  2  0
 23 25  1  0
 26 27  2  0
 26 28  2  0
  1 29  1  0
  1 30  1  0
  1 31  1  0
  3 32  1  0
  7 33  1  0
  8 34  1  0
  8 35  1  0
  8 36  1  0
  9 37  1  0
  9 38  1  0
 11 39  1  0
 11 40  1  0
 11 41  1  0
 12 42  1  0
 12 43  1  0
 12 44  1  0
 15 45  1  0
 15 46  1  0
 17 47  1  0
 19 48  1  0
 25 49  1  0
 25 50  1  0
M  END
> <Name>
ZINC27053601

> <reference>
BDB50021153

> <quality>
0.769

> <status>
decoy

$$$$
ZINC21670192
  SciTegic06061311253D

 45 47  0  0  1  0            999 V2000
    4.0265   -0.8037   -0.0407 C   0  0
    3.1821   -1.9059   -0.0381 C   0  0
    1.8137   -1.7450   -0.0242 C   0  0
    1.2672   -0.4666   -0.0125 C   0  0
    2.1278    0.6471   -0.0148 C   0  0
    3.5126    0.4620   -0.0290 C   0  0
    1.2567    1.8213   -0.0002 C   0  0
   -0.0162    1.3454    0.0094 C   0  0
    0.0021   -0.0041    0.0020 O   0  0
   -1.2281    2.1740    0.0199 C   0  0
   -1.1356    3.3863    0.0256 O   0  0
   -2.4439    1.5905    0.0232 O   0  0
   -3.5979    2.4717    0.0336 C   0  0
   -4.8594    1.6472    0.0358 C   0  0
   -4.7924    0.4363    0.0294 O   0  0
   -6.0620    2.2556    0.0451 N   0  0
   -7.2348    1.4891    0.0472 N   0  0
   -8.4374    2.0975    0.0565 C   0  0
   -8.5043    3.3085    0.0630 O   0  0
   -9.6989    1.2731    0.0588 C   0  0
  -10.9149    2.2016    0.0698 C   0  0  1  0  0  0
  -10.9488    3.0137   -1.2355 C   0  0
  -12.3384    3.7047   -1.3400 C   0  0
  -13.4345    2.3500   -0.7414 S   0  0
  -13.8847    1.5928   -1.8564 O   0  0
  -14.3841    2.8909    0.1668 O   0  0
  -12.2052    1.3568    0.1994 C   0  0
    5.1166   -0.9506   -0.0523 H   0  0
    3.6104   -2.9190   -0.0472 H   0  0
    1.1551   -2.6260   -0.0224 H   0  0
    4.1861    1.3317   -0.0308 H   0  0
    1.5685    2.8762    0.0025 H   0  0
   -3.5804    3.1113   -0.8612 H   0  0
   -3.5705    3.1014    0.9351 H   0  0
   -6.1189    3.2840    0.0507 H   0  0
   -7.1779    0.4607    0.0416 H   0  0
   -9.7272    0.6434   -0.8427 H   0  0
   -9.7187    0.6336    0.9536 H   0  0
  -10.8475    2.8920    0.9235 H   0  0
  -10.1572    3.7773   -1.2170 H   0  0
  -10.8053    2.3417   -2.0944 H   0  0
  -12.3994    4.5657   -0.6581 H   0  0
  -12.5783    3.9467   -2.3859 H   0  0
  -12.5139    1.2807    1.2524 H   0  0
  -12.0736    0.3749   -0.2788 H   0  0
  1  6  1  0
  1  2  2  0
  2  3  1  0
  3  4  2  0
  4  9  1  0
  4  5  1  0
  5  6  2  0
  5  7  1  0
  7  8  2  0
  8  9  1  0
  8 10  1  0
 10 11  2  0
 10 12  1  0
 12 13  1  0
 13 14  1  0
 14 15  2  0
 14 16  1  0
 16 17  1  0
 17 18  1  0
 18 19  2  0
 18 20  1  0
 20 21  1  0
 21 27  1  0
 21 22  1  0
 22 23  1  0
 23 24  1  0
 24 25  2  0
 24 26  2  0
 24 27  1  0
  1 28  1  0
  2 29  1  0
  3 30  1  0
  6 31  1  0
  7 32  1  0
 13 33  1  0
 13 34  1  0
 16 35  1  0
 17 36  1  0
 20 37  1  0
 20 38  1  0
 21 39  1  0
 22 40  1  0
 22 41  1  0
 23 42  1  0
 23 43  1  0
 27 44  1  0
 27 45  1  0
M  END
> <Name>
ZINC21670192

> <reference>
BDB50021153

> <quality>
0.766

> <status>
decoy

$$$$
ZINC31997269
  SciTegic06061311253D

 51 53  0  0  1  0            999 V2000
   -5.0172   -4.7184   -1.9765 C   0  0
   -3.7510   -3.8622   -1.9096 C   0  0
   -4.1282   -2.4197   -1.5665 C   0  0
   -2.8810   -1.5764   -1.5006 C   0  0
   -2.0998   -1.3500   -0.3972 C   0  0
   -1.0891   -0.5277   -0.8234 N   0  0
   -1.2653   -0.3015   -2.0782 N   0  0
   -2.3150   -0.9075   -2.5051 N   0  0
    0.0021   -0.0041    0.0020 C   0  0  1  0  0  0
    1.3706   -0.3575   -0.6221 C   0  0
    2.0146    1.0153   -0.9168 C   0  0  1  0  0  0
    1.3722    1.9285   -0.0007 O   0  0
   -0.0189    1.5406    0.0105 C   0  0  2  0  0  0
   -0.7057    2.0570    1.2764 C   0  0
   -0.8186    3.4800    1.2104 O   0  0
    3.4565    0.9675   -0.6622 N   0  0
    4.3337    1.1231   -1.7008 C   0  0
    5.6626    1.0845   -1.4651 C   0  0
    6.1218    0.8713   -0.1429 C   0  0
    7.3156    0.8273    0.0934 O   0  0
    5.2250    0.7171    0.8521 N   0  0
    3.9057    0.7656    0.5899 C   0  0
    3.1087    0.6244    1.4971 O   0  0
    6.6440    1.2599   -2.5952 C   0  0
   -2.3044   -1.8772    0.9606 C   0  0
   -3.2520   -2.6014    1.1949 O   0  0
   -1.4409   -1.5572    1.9451 O   0  0
   -1.7050   -2.1135    3.2601 C   0  0
   -5.6889   -4.3215   -2.7519 H   0  0
   -5.5284   -4.6956   -1.0028 H   0  0
   -4.7467   -5.7557   -2.2232 H   0  0
   -3.0801   -4.2596   -1.1338 H   0  0
   -3.2397   -3.8850   -2.8833 H   0  0
   -4.6386   -2.3948   -0.5924 H   0  0
   -4.7988   -2.0215   -2.3422 H   0  0
   -0.1306   -0.4356    1.0051 H   0  0
    1.2279   -0.9169   -1.5584 H   0  0
    1.9839   -0.9156    0.1007 H   0  0
    1.8859    1.3189   -1.9662 H   0  0
   -0.5735    1.9542   -0.8447 H   0  0
   -0.1101    1.7777    2.1580 H   0  0
   -1.7091    1.6134    1.3563 H   0  0
   -1.3554    3.7330    0.4180 H   0  0
    3.9580    1.2789   -2.7229 H   0  0
    5.5508    0.5616    1.8167 H   0  0
    6.3837    2.2273   -3.0495 H   0  0
    6.3814    0.4780   -3.3230 H   0  0
    7.6976    1.2097   -2.2831 H   0  0
   -1.7288   -3.2061    3.1353 H   0  0
   -2.7164   -1.7830    3.5389 H   0  0
   -0.9583   -1.8073    4.0075 H   0  0
  1  2  1  0
  2  3  1  0
  3  4  1  0
  4  8  1  0
  4  5  2  0
  5  6  1  0
  5 25  1  0
  6  7  1  0
  6  9  1  0
  7  8  2  0
  9 13  1  0
  9 10  1  0
 10 11  1  0
 11 12  1  0
 11 16  1  0
 12 13  1  0
 13 14  1  0
 14 15  1  0
 16 22  1  0
 16 17  1  0
 17 18  2  0
 18 19  1  0
 18 24  1  0
 19 20  2  0
 19 21  1  0
 21 22  1  0
 22 23  2  0
 25 26  2  0
 25 27  1  0
 27 28  1  0
  1 29  1  0
  1 30  1  0
  1 31  1  0
  2 32  1  0
  2 33  1  0
  3 34  1  0
  3 35  1  0
  9 36  1  0
 10 37  1  0
 10 38  1  0
 11 39  1  0
 13 40  1  0
 14 41  1  0
 14 42  1  0
 15 43  1  0
 17 44  1  0
 21 45  1  0
 24 46  1  0
 24 47  1  0
 24 48  1  0
 28 49  1  0
 28 50  1  0
 28 51  1  0
M  END
> <Name>
ZINC31997269

> <reference>
BDB50021153

> <quality>
0.764

> <status>
decoy

$$$$
ZINC27317432
  SciTegic06061311253D

 45 46  0  0  0  0            999 V2000
    3.5938    2.2734   -0.3380 C   0  0
    2.3972    1.3227   -0.2646 C   0  0
    1.1044    2.1360   -0.1743 C   0  0
   -0.0413    1.2257   -0.1041 N   0  0
   -1.3112    1.7291   -0.0228 C   0  0
   -2.4014    0.8632    0.0382 C   0  0
   -3.7126    1.3772   -0.0048 C   0  0
   -4.1280    1.9037   -1.0232 O   0  0
   -4.5857    1.2781    1.1862 C   0  0
   -4.0770    0.7865    2.3889 C   0  0
   -4.8945    0.7020    3.4970 C   0  0
   -6.2192    1.0928    3.4144 C   0  0
   -6.7312    1.5758    2.2232 C   0  0
   -5.9225    1.6706    1.1094 C   0  0
   -7.2585    0.9754    4.8324 S   0  0
   -6.3721    1.0615    5.9397 O   0  0
   -8.2618    1.9610    4.6292 O   0  0
   -7.9854   -0.6841    4.7415 C   0  0
   -2.1973   -0.4941    0.1405 N   0  3
   -1.5970   -0.9788    1.2197 C   0  0
   -1.3751   -2.3337    1.3567 C   0  0
   -1.7876   -3.1943    0.3503 C   0  0
   -2.4151   -2.6555   -0.7695 C   0  0
   -2.6103   -1.2859   -0.8395 C   0  0
   -2.8354   -3.4633   -1.7786 O   0  5
   -1.5679    3.4721    0.0047 S   0  5
    3.6195    2.9025    0.5640 H   0  0
    3.5011    2.9132   -1.2280 H   0  0
    4.5236    1.6893   -0.4029 H   0  0
    2.3721    0.6943   -1.1671 H   0  0
    2.4899    0.6829    0.6253 H   0  0
    1.1286    2.7643    0.7282 H   0  0
    1.0095    2.7758   -1.0641 H   0  0
    0.1090    0.2068   -0.1159 H   0  0
   -3.0264    0.4670    2.4534 H   0  0
   -4.4923    0.3231    4.4482 H   0  0
   -7.7852    1.8849    2.1641 H   0  0
   -6.3307    2.0548    0.1629 H   0  0
   -7.2163   -1.4686    4.7975 H   0  0
   -8.5999   -0.8100    3.8379 H   0  0
   -8.6470   -0.8059    5.6118 H   0  0
   -1.2721   -0.2920    2.0152 H   0  0
   -0.8763   -2.7272    2.2547 H   0  0
   -1.6226   -4.2785    0.4351 H   0  0
   -3.1126   -0.8512   -1.7163 H   0  0
  1  2  1  0
  2  3  1  0
  3  4  1  0
  4  5  1  0
  5  6  2  0
  5 26  1  0
  6  7  1  0
  6 19  1  0
  7  8  2  0
  7  9  1  0
  9 14  2  0
  9 10  1  0
 10 11  2  0
 11 12  1  0
 12 13  2  0
 12 15  1  0
 13 14  1  0
 15 16  2  0
 15 17  2  0
 15 18  1  0
 19 24  2  0
 19 20  1  0
 20 21  2  0
 21 22  1  0
 22 23  2  0
 23 24  1  0
 23 25  1  0
  1 27  1  0
  1 28  1  0
  1 29  1  0
  2 30  1  0
  2 31  1  0
  3 32  1  0
  3 33  1  0
  4 34  1  0
 10 35  1  0
 11 36  1  0
 13 37  1  0
 14 38  1  0
 18 39  1  0
 18 40  1  0
 18 41  1  0
 20 42  1  0
 21 43  1  0
 22 44  1  0
 24 45  1  0
M  CHG  3  19   1  25  -1  26  -1
M  END
> <Name>
ZINC27317432

> <reference>
BDB50021153

> <quality>
0.751

> <status>
decoy

$$$$
ZINC12993589
  SciTegic06061311253D

 42 44  0  0  0  0            999 V2000
   -2.4651   -3.2223   -3.9234 C   0  0
   -3.6095   -2.4445   -2.7504 S   0  0
   -4.6213   -3.3666   -2.3692 O   0  0
   -3.9497   -1.1375   -3.1921 O   0  0
   -2.7151   -2.2070   -1.3771 N   0  0
   -1.5797   -1.2813   -1.3934 C   0  0
   -1.1655   -0.9570    0.0433 C   0  0
    0.0025   -0.0048    0.0265 C   0  0
   -0.0162    1.3540    0.0248 C   0  0
    1.1722    2.0405    0.0077 C   0  0
    2.3361    1.2876   -0.0069 C   0  0
    1.6954   -0.3774    0.0042 S   0  0
    3.7295    1.7411   -0.0260 C   0  0
    3.9820    2.9317   -0.0308 O   0  0
    4.7315    0.8397   -0.0382 N   0  0
    6.0577    1.2696   -0.1538 C   0  0
    6.9774    0.5034   -0.8587 C   0  0
    8.2846    0.9303   -0.9766 C   0  0
    8.6831    2.1197   -0.3814 C   0  0
    7.7652    2.8833    0.3274 C   0  0
    6.4566    2.4598    0.4412 C   0  0
   10.0136    2.5504   -0.4965 N   0  0
   11.0229    1.9307   -1.1453 C   0  0
   12.0899    2.6726   -1.0024 N   0  0
   11.8239    3.7192   -0.3073 N   0  0
   10.5803    3.7228    0.0339 N   0  0
   -3.0228   -3.5431   -4.8156 H   0  0
   -2.0009   -4.0997   -3.4495 H   0  0
   -1.6853   -2.5029   -4.2136 H   0  0
   -2.9570   -2.7101   -0.5115 H   0  0
   -0.7346   -1.7466   -1.9219 H   0  0
   -1.8688   -0.3537   -1.9091 H   0  0
   -2.0100   -0.4912    0.5723 H   0  0
   -0.8749   -1.8834    0.5603 H   0  0
   -0.9726    1.8973    0.0370 H   0  0
    1.1999    3.1402    0.0057 H   0  0
    4.5208   -0.1657    0.0376 H   0  0
    6.6639   -0.4433   -1.3228 H   0  0
    9.0108    0.3281   -1.5422 H   0  0
    8.0811    3.8259    0.7983 H   0  0
    5.7296    3.0646    1.0030 H   0  0
   10.9591    0.9785   -1.6924 H   0  0
  1  2  1  0
  2  3  2  0
  2  4  2  0
  2  5  1  0
  5  6  1  0
  6  7  1  0
  7  8  1  0
  8 12  1  0
  8  9  2  0
  9 10  1  0
 10 11  2  0
 11 12  1  0
 11 13  1  0
 13 14  2  0
 13 15  1  0
 15 16  1  0
 16 21  2  0
 16 17  1  0
 17 18  2  0
 18 19  1  0
 19 20  2  0
 19 22  1  0
 20 21  1  0
 22 26  1  0
 22 23  1  0
 23 24  2  0
 24 25  1  0
 25 26  2  0
  1 27  1  0
  1 28  1  0
  1 29  1  0
  5 30  1  0
  6 31  1  0
  6 32  1  0
  7 33  1  0
  7 34  1  0
  9 35  1  0
 10 36  1  0
 15 37  1  0
 17 38  1  0
 18 39  1  0
 20 40  1  0
 21 41  1  0
 23 42  1  0
M  END
> <Name>
ZINC12993589

> <reference>
BDB50021153

> <quality>
0.750

> <status>
decoy

$$$$
ZINC30926965
  SciTegic06061311253D

 47 49  0  0  0  0            999 V2000
    0.0840   -3.4663   -1.4747 C   0  0
   -0.2786   -3.1397   -0.0246 C   0  0
   -1.3991   -2.1323   -0.0016 C   0  0
   -1.2632   -0.7577    0.0101 C   0  0
   -2.5666   -0.2098    0.0249 C   0  0
   -3.4200   -1.1963    0.0272 N   0  0
   -2.7162   -2.4057    0.0140 N   0  0
   -3.2866   -3.6844    0.0121 C   0  0
   -4.6874   -3.8248    0.0294 C   0  0
   -5.2409   -5.0669    0.0229 C   0  0
   -4.3986   -6.1974    0.0095 C   0  0
   -4.8771   -7.3204    0.0080 O   0  0
   -3.0610   -6.0294   -0.0021 N   0  0
   -2.5127   -4.7417   -0.0004 N   0  0
    0.0021   -0.0041    0.0020 C   0  0
    1.0626   -0.5973   -0.0113 O   0  0
   -0.0162    1.3434    0.0094 O   0  0
    1.2684    2.0201    0.0008 C   0  0
    1.0474    3.5340    0.0110 C   0  0
    0.4113    3.9261    1.2711 N   0  0
   -0.9218    3.9904    1.4583 C   0  0
   -1.7880    3.7440    0.6466 O   0  0
   -1.1130    4.4330    2.8954 C   0  0  2  0  0  0
    0.2638    4.5883    3.3959 N   0  5
    1.0819    4.2702    2.3765 C   0  0
    2.2948    4.2929    2.4512 O   0  0
   -1.8600    3.3652    3.6971 C   0  0
   -1.8588    5.7679    2.9484 C   0  0
    0.4063   -2.5487   -1.9887 H   0  0
   -0.7944   -3.8842   -1.9882 H   0  0
    0.9019   -4.2016   -1.4922 H   0  0
    0.5998   -2.7218    0.4890 H   0  0
   -0.6010   -4.0577    0.4885 H   0  0
   -2.8172    0.8613    0.0331 H   0  0
   -5.3315   -2.9333    0.0481 H   0  0
   -6.3342   -5.1883    0.0280 H   0  0
   -5.4737   -7.3373   -0.7819 H   0  0
    1.8267    1.7379   -0.9040 H   0  0
    1.8429    1.7280    0.8922 H   0  0
    0.3976    3.8165   -0.8304 H   0  0
    2.0158    4.0467   -0.0854 H   0  0
   -1.2800    2.4308    3.6747 H   0  0
   -2.8419    3.1915    3.2326 H   0  0
   -1.9925    3.6977    4.7373 H   0  0
   -2.8408    5.6509    2.4668 H   0  0
   -1.2771    6.5270    2.4050 H   0  0
   -1.9930    6.0812    3.9943 H   0  0
  1  2  1  0
  2  3  1  0
  3  7  1  0
  3  4  2  0
  4  5  1  0
  4 15  1  0
  5  6  2  0
  6  7  1  0
  7  8  1  0
  8 14  2  0
  8  9  1  0
  9 10  2  0
 10 11  1  0
 11 12  1  0
 11 13  2  0
 13 14  1  0
 15 16  2  0
 15 17  1  0
 17 18  1  0
 18 19  1  0
 19 20  1  0
 20 25  1  0
 20 21  1  0
 21 22  2  0
 21 23  1  0
 23 24  1  0
 23 27  1  0
 23 28  1  0
 24 25  1  0
 25 26  2  0
  1 29  1  0
  1 30  1  0
  1 31  1  0
  2 32  1  0
  2 33  1  0
  5 34  1  0
  9 35  1  0
 10 36  1  0
 12 37  1  0
 18 38  1  0
 18 39  1  0
 19 40  1  0
 19 41  1  0
 27 42  1  0
 27 43  1  0
 27 44  1  0
 28 45  1  0
 28 46  1  0
 28 47  1  0
M  CHG  1  24  -1
M  END
> <Name>
ZINC30926965

> <reference>
BDB50021153

> <quality>
0.748

> <status>
decoy

$$$$
ZINC04487231
  SciTegic06061311253D

 47 49  0  0  1  0            999 V2000
    5.7698  -11.6758    6.1676 C   0  0
    5.9316  -10.3212    6.5929 O   0  0
    5.4111   -9.3560    5.7899 C   0  0
    5.5334   -8.0197    6.1447 C   0  0
    5.0059   -7.0378    5.3322 C   0  0
    4.3494   -7.3888    4.1537 C   0  0
    4.2236   -8.7319    3.8029 C   0  0
    4.7579   -9.7088    4.6170 C   0  0
    3.7804   -6.3354    3.2778 C   0  0
    3.1356   -6.6741    2.1211 C   0  0
    2.6779   -5.0568    1.5112 S   0  0
    3.3942   -4.1049    2.8438 C   0  0
    3.8929   -5.0580    3.6091 N   0  0
    3.4153   -2.7279    3.0282 N   0  0
    2.8417   -1.9171    2.1172 C   0  0
    2.3071   -2.3894    1.1363 O   0  0
    2.8646   -0.4236    2.3172 C   0  0  1  0  0  0
    4.2338    0.1246    1.9102 C   0  0
    4.2848    1.6050    2.1872 C   0  0
    3.3073    2.1742    2.6120 O   0  0
    2.1146    0.0256    0.0583 C   0  0
    1.0384    0.7371   -0.7659 C   0  0
   -0.2468    0.2205   -0.4099 O   0  0
   -0.5643    0.3719    0.9763 C   0  0
    0.4957   -0.3434    1.8181 C   0  0
    5.4161    2.2914    1.9621 O   0  5
    1.8214    0.2242    1.4930 N   0  0
    6.2272  -11.7433    5.1695 H   0  0
    4.6876  -11.8373    6.0545 H   0  0
    6.2161  -12.3976    6.8674 H   0  0
    6.0516   -7.7434    7.0749 H   0  0
    5.1032   -5.9789    5.6139 H   0  0
    3.6988   -9.0125    2.8778 H   0  0
    4.6663  -10.7685    4.3365 H   0  0
    2.9497   -7.6671    1.6858 H   0  0
    3.8693   -2.3268    3.8612 H   0  0
    2.6711   -0.2075    3.3783 H   0  0
    5.0192   -0.3835    2.4891 H   0  0
    4.3967   -0.0526    0.8369 H   0  0
    2.1059   -1.0496   -0.1739 H   0  0
    3.1016    0.4500   -0.1777 H   0  0
    1.2196    0.5630   -1.8368 H   0  0
    1.0702    1.8167   -0.5576 H   0  0
   -1.5516   -0.0691    1.1784 H   0  0
   -0.5782    1.4408    1.2355 H   0  0
    0.4886   -1.4185    1.5855 H   0  0
    0.2821   -0.1915    2.8864 H   0  0
  1  2  1  0
  2  3  1  0
  3  8  2  0
  3  4  1  0
  4  5  2  0
  5  6  1  0
  6  7  2  0
  6  9  1  0
  7  8  1  0
  9 13  1  0
  9 10  2  0
 10 11  1  0
 11 12  1  0
 12 13  2  0
 12 14  1  0
 14 15  1  0
 15 16  2  0
 15 17  1  0
 17 18  1  0
 17 27  1  0
 18 19  1  0
 19 20  2  0
 19 26  1  0
 21 22  1  0
 21 27  1  0
 22 23  1  0
 23 24  1  0
 24 25  1  0
 25 27  1  0
  1 28  1  0
  1 29  1  0
  1 30  1  0
  4 31  1  0
  5 32  1  0
  7 33  1  0
  8 34  1  0
 10 35  1  0
 14 36  1  0
 17 37  1  0
 18 38  1  0
 18 39  1  0
 21 40  1  0
 21 41  1  0
 22 42  1  0
 22 43  1  0
 24 44  1  0
 24 45  1  0
 25 46  1  0
 25 47  1  0
M  CHG  1  26  -1
M  END
> <Name>
ZINC04487231

> <reference>
BDB50021153

> <quality>
0.747

> <status>
decoy

$$$$
ZINC29804767
  SciTegic06061311253D

 42 43  0  0  0  0            999 V2000
    3.0473   -9.5128   -1.1316 C   0  0
    3.2266   -8.5815    0.0690 C   0  0  1  0  0  0
    3.5492   -9.4106    1.3138 C   0  0
    4.3258   -7.6498   -0.1956 N   0  0
    5.6313   -7.9649   -0.4538 C   0  0
    6.2740   -6.8446   -0.6254 N   0  0
    5.4692   -5.8504   -0.4997 N   0  0
    4.2588   -6.2868   -0.2388 C   0  0
    2.8214   -5.2999    0.0150 S   0  0
    3.5334   -3.6486   -0.1911 C   0  0
    2.4555   -2.6108   -0.0119 C   0  0
    1.3178   -2.9538    0.2312 O   0  0
    2.7557   -1.3015   -0.1218 N   0  0
    1.7385   -0.3418   -0.0519 C   0  0
    0.6566   -0.5367    0.7969 C   0  0
   -0.3482    0.4096    0.8671 C   0  0
   -0.2797    1.5533    0.0927 C   0  0
    0.8019    1.7538   -0.7587 C   0  0
    1.8112    0.8046   -0.8302 C   0  0
    0.8713    2.9099   -1.5422 N   0  5
    1.5182    2.8406   -3.0651 S   0  0
    1.3451    4.1486   -3.5925 O   0  0
    2.8195    2.2997   -2.8819 O   0  0
    0.4721    1.6614   -3.9627 C   0  0
   -1.2665    2.4737    0.1589 F   0  0
    2.2220  -10.2127   -0.9341 H   0  0
    3.9752  -10.0791   -1.2995 H   0  0
    2.8153   -8.9174   -2.0269 H   0  0
    2.2983   -8.0155    0.2359 H   0  0
    4.4776   -9.9768    1.1481 H   0  0
    2.7243  -10.1104    1.5135 H   0  0
    3.6782   -8.7416    2.1774 H   0  0
    6.0595   -8.9768   -0.5068 H   0  0
    3.9652   -3.5575   -1.1987 H   0  0
    4.3208   -3.4923    0.5609 H   0  0
    3.7333   -1.0069   -0.2572 H   0  0
    0.5994   -1.4454    1.4141 H   0  0
   -1.2040    0.2528    1.5402 H   0  0
    2.6676    0.9606   -1.5027 H   0  0
   -0.5682    2.0123   -4.0301 H   0  0
    0.5107    0.6595   -3.5103 H   0  0
    0.8627    1.5790   -4.9877 H   0  0
  1  2  1  0
  2  3  1  0
  2  4  1  0
  4  8  1  0
  4  5  1  0
  5  6  2  0
  6  7  1  0
  7  8  2  0
  8  9  1  0
  9 10  1  0
 10 11  1  0
 11 12  2  0
 11 13  1  0
 13 14  1  0
 14 19  2  0
 14 15  1  0
 15 16  2  0
 16 17  1  0
 17 18  2  0
 17 25  1  0
 18 19  1  0
 18 20  1  0
 20 21  1  0
 21 22  2  0
 21 23  2  0
 21 24  1  0
  1 26  1  0
  1 27  1  0
  1 28  1  0
  2 29  1  0
  3 30  1  0
  3 31  1  0
  3 32  1  0
  5 33  1  0
 10 34  1  0
 10 35  1  0
 13 36  1  0
 15 37  1  0
 16 38  1  0
 19 39  1  0
 24 40  1  0
 24 41  1  0
 24 42  1  0
M  CHG  1  20  -1
M  END
> <Name>
ZINC29804767

> <reference>
BDB50021153

> <quality>
0.743

> <status>
decoy

$$$$
ZINC23351438
  SciTegic06061311253D

 49 51  0  0  0  0            999 V2000
  -12.6538   -9.9837   -0.8354 C   0  0
  -11.9851   -9.6108    0.4892 C   0  0
  -10.7502   -8.7916    0.2154 C   0  0
  -10.6089   -7.4860    0.1018 N   0  0
   -9.4768   -6.9793   -0.1327 N   0  0
   -8.3937   -7.7243   -0.2735 C   0  0
   -9.0612   -9.3155   -0.0554 S   0  0
   -7.0818   -7.3412   -0.5313 N   0  0
   -6.7764   -6.0362   -0.6733 C   0  0
   -7.6456   -5.1959   -0.5763 O   0  5
   -5.3549   -5.6211   -0.9527 C   0  0
   -5.2562   -4.1559   -0.9149 N   0  0
   -5.5020   -3.6463    0.4414 C   0  0
   -5.4690   -2.1163    0.4225 C   0  0
   -4.1640   -1.6632   -0.0788 N   0  0
   -3.9182   -2.1728   -1.4351 C   0  0
   -3.9512   -3.7028   -1.4161 C   0  0
   -4.0653   -0.1981   -0.0409 C   0  0
   -2.6447    0.2172   -0.3244 C   0  0
   -1.7978   -0.6244   -0.5370 O   0  0
   -2.3152    1.5240   -0.3417 N   0  0
   -1.0002    1.9084   -0.6041 C   0  0
    0.1012    1.0524   -0.8710 C   0  0
    1.1360    1.9021   -1.0617 C   0  0
    0.6481    3.1413   -0.9061 O   0  0
   -0.5336    3.1286   -0.6501 N   0  0
    2.5596    1.5290   -1.3861 C   0  0
  -11.9538  -10.5706   -1.4483 H   0  0
  -12.9347   -9.0679   -1.3761 H   0  0
  -13.5553  -10.5817   -0.6363 H   0  0
  -12.6856   -9.0237    1.1013 H   0  0
  -11.7042  -10.5266    1.0300 H   0  0
   -4.6901   -6.0526   -0.1899 H   0  0
   -5.0550   -5.9825   -1.9474 H   0  0
   -6.4886   -3.9872    0.7884 H   0  0
   -4.7233   -4.0209    1.1221 H   0  0
   -5.6232   -1.7323    1.4417 H   0  0
   -6.2654   -1.7401   -0.2365 H   0  0
   -2.9319   -1.8321   -1.7832 H   0  0
   -4.6975   -1.7980   -2.1149 H   0  0
   -3.7956   -4.0851   -2.4357 H   0  0
   -3.1544   -4.0783   -0.7572 H   0  0
   -4.3609    0.1648    0.9546 H   0  0
   -4.7319    0.2343   -0.8016 H   0  0
   -3.0344    2.2389   -0.1612 H   0  0
    0.1105   -0.0468   -0.9129 H   0  0
    2.4401    0.9041   -2.2835 H   0  0
    2.8123    0.8352   -0.5708 H   0  0
    3.2710    2.3592   -1.5073 H   0  0
  1  2  1  0
  2  3  1  0
  3  7  1  0
  3  4  2  0
  4  5  1  0
  5  6  2  0
  6  7  1  0
  6  8  1  0
  8  9  2  0
  9 10  1  0
  9 11  1  0
 11 12  1  0
 12 17  1  0
 12 13  1  0
 13 14  1  0
 14 15  1  0
 15 16  1  0
 15 18  1  0
 16 17  1  0
 18 19  1  0
 19 20  2  0
 19 21  1  0
 21 22  1  0
 22 26  2  0
 22 23  1  0
 23 24  2  0
 24 25  1  0
 24 27  1  0
 25 26  1  0
  1 28  1  0
  1 29  1  0
  1 30  1  0
  2 31  1  0
  2 32  1  0
 11 33  1  0
 11 34  1  0
 13 35  1  0
 13 36  1  0
 14 37  1  0
 14 38  1  0
 16 39  1  0
 16 40  1  0
 17 41  1  0
 17 42  1  0
 18 43  1  0
 18 44  1  0
 21 45  1  0
 23 46  1  0
 27 47  1  0
 27 48  1  0
 27 49  1  0
M  CHG  1  10  -1
M  END
> <Name>
ZINC23351438

> <reference>
BDB50021153

> <quality>
0.743

> <status>
decoy

$$$$
ZINC30336161
  SciTegic06061311253D

 48 50  0  0  0  0            999 V2000
   -1.4658    3.2357   -0.0362 C   0  0
   -2.7149    3.8213   -0.0293 C   0  0
   -3.8505    3.0348    0.0490 C   0  0
   -3.7422    1.6570    0.1140 C   0  0
   -2.4993    1.0585    0.1012 C   0  0
   -1.3496    1.8460    0.0229 C   0  0
   -0.0144    1.2113    0.0087 C   0  0
    0.1651    0.1603    0.5922 O   0  0
    1.0023    1.7953   -0.6559 N   0  0
    2.3681    1.2532   -0.5790 C   0  0
    2.9029    1.0966   -2.0115 C   0  0
    2.7507    2.3363   -2.7070 O   0  0
    1.3936    2.7590   -2.8596 C   0  0
    0.7805    2.9975   -1.4750 C   0  0
   -5.4418    3.7913    0.0653 S   0  0
   -5.2942    5.0612   -0.5549 O   0  0
   -6.3603    2.8151   -0.4067 O   0  0
   -5.8304    4.0802    1.6489 N   0  0
   -5.0421    5.0330    2.4344 C   0  0
   -5.8059    5.3983    3.7088 C   0  0
   -5.0176    6.3511    4.4944 N   0  0
   -5.5100    6.8311    5.7023 C   0  0
   -6.7531    6.4075    6.1680 C   0  0
   -7.2163    6.8654    7.3152 N   0  0
   -6.5024    7.7252    8.0228 C   0  0
   -5.2692    8.1472    7.5646 C   0  0
   -4.7954    7.6896    6.4178 N   0  0
   -0.5634    3.8626   -0.0882 H   0  0
   -2.8082    4.9159   -0.0862 H   0  0
   -4.6491    1.0375    0.1760 H   0  0
   -2.4145   -0.0370    0.1526 H   0  0
    2.3506    0.2718   -0.0825 H   0  0
    3.0112    1.9479   -0.0189 H   0  0
    3.9677    0.8226   -1.9783 H   0  0
    2.3357    0.3114   -2.5328 H   0  0
    1.3626    3.6928   -3.4401 H   0  0
    0.8216    1.9796   -3.3843 H   0  0
   -0.2992    3.1815   -1.5767 H   0  0
    1.2660    3.8635   -1.0014 H   0  0
   -6.6263    3.5900    2.0816 H   0  0
   -4.0777    4.5774    2.7034 H   0  0
   -4.8653    5.9419    1.8405 H   0  0
   -6.7702    5.8544    3.4405 H   0  0
   -5.9827    4.4907    4.3046 H   0  0
   -4.0985    6.6652    4.1516 H   0  0
   -7.3472    5.6925    5.5800 H   0  0
   -6.8917    8.1053    8.9788 H   0  0
   -4.6804    8.8650    8.1546 H   0  0
  1  6  2  0
  1  2  1  0
  2  3  2  0
  3  4  1  0
  3 15  1  0
  4  5  2  0
  5  6  1  0
  6  7  1  0
  7  8  2  0
  7  9  1  0
  9 14  1  0
  9 10  1  0
 10 11  1  0
 11 12  1  0
 12 13  1  0
 13 14  1  0
 15 16  2  0
 15 17  2  0
 15 18  1  0
 18 19  1  0
 19 20  1  0
 20 21  1  0
 21 22  1  0
 22 27  2  0
 22 23  1  0
 23 24  2  0
 24 25  1  0
 25 26  2  0
 26 27  1  0
  1 28  1  0
  2 29  1  0
  4 30  1  0
  5 31  1  0
 10 32  1  0
 10 33  1  0
 11 34  1  0
 11 35  1  0
 13 36  1  0
 13 37  1  0
 14 38  1  0
 14 39  1  0
 18 40  1  0
 19 41  1  0
 19 42  1  0
 20 43  1  0
 20 44  1  0
 21 45  1  0
 23 46  1  0
 25 47  1  0
 26 48  1  0
M  END
> <Name>
ZINC30336161

> <reference>
BDB50021153

> <quality>
0.742

> <status>
decoy

$$$$
ZINC01032497
  SciTegic06061311253D

 43 45  0  0  0  0            999 V2000
    2.5298    2.2014    0.8105 C   0  0
    1.1013    2.4754    0.6362 N   0  0
    0.5271    3.7035    0.4468 C   0  0
   -0.7993    3.5000    0.3333 C   0  0
   -1.0282    2.1831    0.4453 N   0  0
    0.1052    1.5637    0.6318 C   0  0
   -2.0195    4.7448    0.0755 S   0  0
   -3.2459    4.2186    0.5636 O   0  0
   -1.4667    5.9615    0.5584 O   0  0
   -2.1989    4.9231   -1.5610 N   0  5
   -2.6072    3.8369   -2.3424 C   0  0
   -3.4686    2.8858   -1.8156 C   0  0
   -3.8711    1.8137   -2.5897 C   0  0
   -3.4175    1.6851   -3.8898 C   0  0
   -2.5593    2.6282   -4.4233 C   0  0
   -2.1539    3.7100   -3.6556 C   0  0
   -1.2886    4.6690   -4.1954 N   0  0
   -0.9491    4.6156   -5.5175 C   0  0
    0.3184    4.4694   -5.8941 C   0  0
    0.6180    4.4133   -7.3813 C   0  0
   -1.0683    4.1386   -8.0762 S   0  0
   -2.0062    4.7276   -6.6013 C   0  0
    1.3530    4.3648   -4.9396 C   0  0
    1.0837    4.3081   -3.7539 O   0  0
    2.6410    4.3277   -5.3416 O   0  0
    3.6362    4.2211   -4.3217 C   0  0
    2.7259    1.4592    0.0227 H   0  0
    2.5495    1.6435    1.7583 H   0  0
    3.2061    3.0686    0.7871 H   0  0
    1.0488    4.6706    0.3969 H   0  0
    0.2287    0.4786    0.7636 H   0  0
   -3.8314    2.9847   -0.7819 H   0  0
   -4.5543    1.0605   -2.1703 H   0  0
   -3.7407    0.8297   -4.5012 H   0  0
   -2.1978    2.5208   -5.4567 H   0  0
   -0.9079    5.4149   -3.5957 H   0  0
    1.2645    3.5556   -7.6188 H   0  0
    1.0168    5.3750   -7.7363 H   0  0
   -2.8481    4.0495   -6.3980 H   0  0
   -2.3105    5.7748   -6.7454 H   0  0
    3.4027    3.3072   -3.7558 H   0  0
    3.4862    5.0807   -3.6519 H   0  0
    4.6587    4.1967   -4.7265 H   0  0
  1  2  1  0
  2  6  1  0
  2  3  1  0
  3  4  2  0
  4  5  1  0
  4  7  1  0
  5  6  2  0
  7  8  2  0
  7  9  2  0
  7 10  1  0
 10 11  1  0
 11 16  2  0
 11 12  1  0
 12 13  2  0
 13 14  1  0
 14 15  2  0
 15 16  1  0
 16 17  1  0
 17 18  1  0
 18 22  1  0
 18 19  2  0
 19 20  1  0
 19 23  1  0
 20 21  1  0
 21 22  1  0
 23 24  2  0
 23 25  1  0
 25 26  1  0
  1 27  1  0
  1 28  1  0
  1 29  1  0
  3 30  1  0
  6 31  1  0
 12 32  1  0
 13 33  1  0
 14 34  1  0
 15 35  1  0
 17 36  1  0
 20 37  1  0
 20 38  1  0
 22 39  1  0
 22 40  1  0
 26 41  1  0
 26 42  1  0
 26 43  1  0
M  CHG  1  10  -1
M  END
> <Name>
ZINC01032497

> <reference>
BDB50021153

> <quality>
0.739

> <status>
decoy

$$$$
ZINC11793231
  SciTegic06061311253D

 40 41  0  0  0  0            999 V2000
    8.8930   -0.0086    0.3883 C   0  0
    7.5298    0.4133    0.3112 O   0  0
    7.3027    1.7470    0.2098 C   0  0
    8.3679    2.6350    0.1850 C   0  0
    8.1358    3.9920    0.0822 C   0  0
    6.8396    4.4776    0.0031 C   0  0
    5.7693    3.6083    0.0209 C   0  0
    5.9909    2.2332    0.1300 C   0  0
    4.8503    1.2978    0.1549 C   0  0
    5.0471    0.1013    0.2448 O   0  0
    3.5901    1.7694    0.0779 N   0  0
    2.4575    0.8405    0.1027 C   0  0
    1.1693    1.6163    0.0036 C   0  0
    1.1948    2.8261   -0.0794 O   0  0
   -0.0111    0.9658    0.0074 N   0  0
   -1.2065    1.6881    0.0171 C   0  0
   -2.4263    1.0195    0.1280 C   0  0
   -3.5838    1.7774    0.1332 C   0  0
   -3.4589    3.1640    0.0271 C   0  0
   -2.2575    3.7111   -0.0741 N   0  0
   -1.1841    3.0073   -0.0733 N   0  0
   -4.8963    4.1830    0.0274 S   0  0
   -4.2404    5.8672   -0.1272 C   0  0
   -5.3549    6.8286   -0.1393 C   0  0
   -6.2151    7.5707   -0.1487 N   0  0
    6.5632    6.1866   -0.1258 Cl  0  0
    9.3268    0.5043    1.2594 H   0  0
    9.3886    0.3800   -0.5136 H   0  0
    8.9963   -1.1008    0.4685 H   0  0
    9.3992    2.2574    0.2473 H   0  0
    8.9841    4.6920    0.0629 H   0  0
    4.7427    3.9969   -0.0507 H   0  0
    3.4233    2.7829    0.0016 H   0  0
    2.4699    0.2704    1.0434 H   0  0
    2.5334    0.1467   -0.7475 H   0  0
   -0.0316   -0.0640    0.0032 H   0  0
   -2.4664   -0.0768    0.2088 H   0  0
   -4.5722    1.3021    0.2183 H   0  0
   -3.5797    6.0832    0.7254 H   0  0
   -3.6708    5.9554   -1.0641 H   0  0
  1  2  1  0
  2  3  1  0
  3  8  2  0
  3  4  1  0
  4  5  2  0
  5  6  1  0
  6  7  2  0
  6 26  1  0
  7  8  1  0
  8  9  1  0
  9 10  2  0
  9 11  1  0
 11 12  1  0
 12 13  1  0
 13 14  2  0
 13 15  1  0
 15 16  1  0
 16 21  2  0
 16 17  1  0
 17 18  2  0
 18 19  1  0
 19 20  2  0
 19 22  1  0
 20 21  1  0
 22 23  1  0
 23 24  1  0
 24 25  3  0
  1 27  1  0
  1 28  1  0
  1 29  1  0
  4 30  1  0
  5 31  1  0
  7 32  1  0
 11 33  1  0
 12 34  1  0
 12 35  1  0
 15 36  1  0
 17 37  1  0
 18 38  1  0
 23 39  1  0
 23 40  1  0
M  END
> <Name>
ZINC11793231

> <reference>
BDB50021153

> <quality>
0.731

> <status>
decoy

$$$$
ZINC00824778
  SciTegic06061311253D

 51 53  0  0  1  0            999 V2000
   -7.4913    8.1826    1.0935 C   0  0
   -6.2838    7.4527    1.4879 N   0  0
   -5.4198    6.9690    0.5186 C   0  0
   -4.2807    6.2795    0.9204 C   0  0
   -4.0391    6.0936    2.2930 C   0  0
   -3.0476    5.4922    2.6678 O   0  0
   -4.9165    6.5880    3.1907 N   0  0
   -6.0145    7.2530    2.7918 C   0  0
   -6.7835    7.6843    3.6292 O   0  0
   -3.6122    5.9185   -0.2418 N   0  0
   -4.3481    6.3946   -1.2807 C   0  0
   -5.4167    7.0088   -0.8148 N   0  0
   -4.0288    6.2540   -2.6117 N   0  0
   -5.0720    5.5073   -3.3273 C   0  0
   -3.7942    7.5620   -3.2378 C   0  0
   -2.3537    5.1738   -0.3308 C   0  0
   -2.6538    3.6877   -0.5363 C   0  0  1  0  0  0
   -1.3436    2.9281   -0.7538 C   0  0
   -1.6303    1.5623   -1.0610 O   0  0
   -0.5677    0.7436   -1.2843 C   0  0
    0.7227    1.2475   -1.2145 C   0  0
    1.8018    0.4171   -1.4465 C   0  0
    1.5951   -0.9204   -1.7502 C   0  0
    0.3048   -1.4242   -1.8199 C   0  0
   -0.7744   -0.5939   -1.5874 C   0  0
    2.6575   -1.7377   -1.9790 O   0  0
    3.9578   -1.1517   -1.8905 C   0  0
   -3.3175    3.1716    0.6192 O   0  0
   -7.4184    9.1546    1.6033 H   0  0
   -8.3234    7.6325    1.5571 H   0  0
   -7.6126    8.2877    0.0053 H   0  0
   -4.7424    6.4539    4.1970 H   0  0
   -6.0248    6.0490   -3.2343 H   0  0
   -5.1763    4.5130   -2.8685 H   0  0
   -4.8028    5.4032   -4.3888 H   0  0
   -2.9677    8.0644   -2.7138 H   0  0
   -4.7051    8.1711   -3.1418 H   0  0
   -3.5403    7.4333   -4.3003 H   0  0
   -1.7814    5.3063    0.5992 H   0  0
   -1.7646    5.5493   -1.1805 H   0  0
   -3.3007    3.5626   -1.4172 H   0  0
   -0.7902    3.3828   -1.5887 H   0  0
   -0.7338    2.9774    0.1604 H   0  0
    0.8867    2.3084   -0.9744 H   0  0
    2.8252    0.8165   -1.3904 H   0  0
    0.1408   -2.4850   -2.0603 H   0  0
   -1.7977   -0.9935   -1.6427 H   0  0
    4.0358   -0.7232   -0.8804 H   0  0
    3.9723   -0.3210   -2.6114 H   0  0
    4.7641   -1.8735   -2.0877 H   0  0
   -4.1656    3.6623    0.7605 H   0  0
  1  2  1  0
  2  8  1  0
  2  3  1  0
  3 12  1  0
  3  4  2  0
  4  5  1  0
  4 10  1  0
  5  6  2  0
  5  7  1  0
  7  8  1  0
  8  9  2  0
 10 11  1  0
 10 16  1  0
 11 12  2  0
 11 13  1  0
 13 14  1  0
 13 15  1  0
 16 17  1  0
 17 18  1  0
 17 28  1  0
 18 19  1  0
 19 20  1  0
 20 25  2  0
 20 21  1  0
 21 22  2  0
 22 23  1  0
 23 24  2  0
 23 26  1  0
 24 25  1  0
 26 27  1  0
  1 29  1  0
  1 30  1  0
  1 31  1  0
  7 32  1  0
 14 33  1  0
 14 34  1  0
 14 35  1  0
 15 36  1  0
 15 37  1  0
 15 38  1  0
 16 39  1  0
 16 40  1  0
 17 41  1  0
 18 42  1  0
 18 43  1  0
 21 44  1  0
 22 45  1  0
 24 46  1  0
 25 47  1  0
 27 48  1  0
 27 49  1  0
 27 50  1  0
 28 51  1  0
M  END
> <Name>
ZINC00824778

> <reference>
BDB50021153

> <quality>
0.731

> <status>
decoy

$$$$
ZINC22118601
  SciTegic06061311253D

 41 43  0  0  0  0            999 V2000
    7.4481    4.6642   -0.4475 C   0  0
    6.0614    4.2890   -0.6590 O   0  0
    5.4279    3.6865    0.3654 C   0  0
    6.0173    3.4802    1.4065 O   0  0
    4.0113    3.2753    0.2218 C   0  0
    3.3706    2.6686    1.2497 C   0  0
    1.9851    2.2374    1.1618 C   0  0
    1.3656    2.0701    2.1960 O   0  0
    1.3560    2.0099   -0.0001 N   0  3
    1.9807    2.2510   -1.2021 C   0  0
    1.7136    1.5153   -2.2606 N   0  0
    2.3423    1.7689   -3.4429 C   0  0
    2.4612    3.0857   -3.9044 C   0  0
    3.0959    3.3400   -5.0846 C   0  0
    3.6174    2.2834   -5.8409 C   0  0
    3.4934    0.9661   -5.3824 C   0  0
    2.8643    0.7122   -4.1992 C   0  0
    4.2964    2.5573   -7.1179 C   0  0
    4.7494    1.6401   -7.7743 O   0  0
    4.4158    3.8253   -7.5593 O   0  5
    3.1497    3.5729   -1.2897 S   0  0
   -0.0184    1.5028    0.0103 C   0  0
    0.0021   -0.0041    0.0020 C   0  0
    0.0286   -0.7964    1.0887 C   0  0
    0.0374   -2.1311    0.6223 C   0  0
    0.0242   -2.0744   -0.7215 C   0  0
    0.0028   -0.7835   -1.0917 O   0  0
    7.9818    3.7403   -0.1801 H   0  0
    7.4593    5.3272    0.4302 H   0  0
    7.8947    5.1497   -1.3277 H   0  0
    3.9199    2.4956    2.1869 H   0  0
    1.0295    0.7481   -2.1953 H   0  0
    2.0427    3.9149   -3.3151 H   0  0
    3.1981    4.3752   -5.4422 H   0  0
    3.9034    0.1361   -5.9765 H   0  0
    2.7670   -0.3226   -3.8390 H   0  0
   -0.5332    1.8570    0.9156 H   0  0
   -0.5513    1.8664   -0.8806 H   0  0
    0.0410   -0.4688    2.1387 H   0  0
    0.0522   -3.0412    1.2399 H   0  0
    0.0300   -2.9387   -1.4019 H   0  0
  1  2  1  0
  2  3  1  0
  3  4  2  0
  3  5  1  0
  5 21  1  0
  5  6  2  0
  6  7  1  0
  7  8  2  0
  7  9  1  0
  9 10  2  0
  9 22  1  0
 10 11  1  0
 10 21  1  0
 11 12  1  0
 12 17  2  0
 12 13  1  0
 13 14  2  0
 14 15  1  0
 15 16  2  0
 15 18  1  0
 16 17  1  0
 18 19  2  0
 18 20  1  0
 22 23  1  0
 23 27  1  0
 23 24  2  0
 24 25  1  0
 25 26  2  0
 26 27  1  0
  1 28  1  0
  1 29  1  0
  1 30  1  0
  6 31  1  0
 11 32  1  0
 13 33  1  0
 14 34  1  0
 16 35  1  0
 17 36  1  0
 22 37  1  0
 22 38  1  0
 24 39  1  0
 25 40  1  0
 26 41  1  0
M  CHG  2   9   1  20  -1
M  END
> <Name>
ZINC22118601

> <reference>
BDB50021153

> <quality>
0.728

> <status>
decoy

$$$$
ZINC25997200
  SciTegic06061311253D

 48 49  0  0  0  0            999 V2000
   10.8726   -4.4876   -9.4475 C   0  0
   10.3819   -4.2155   -8.0488 C   0  0
    9.0303   -4.0400   -7.8136 C   0  0
    8.5775   -3.7900   -6.5333 C   0  0
    9.4810   -3.7149   -5.4810 C   0  0
   10.8379   -3.8858   -5.7214 C   0  0
   11.2838   -4.1413   -7.0035 C   0  0
   11.8047   -3.8005   -4.6039 N   0  0
   13.0005   -3.8608   -4.8273 O   0  0
   11.4045   -3.6701   -3.4609 O   0  0
    9.0255   -3.4617   -4.1825 N   0  0
    7.8636   -2.8058   -3.9918 C   0  0
    7.2635   -2.3470   -4.9406 O   0  0
    7.3102   -2.6426   -2.5996 C   0  0
    6.0600   -1.9065   -2.6590 O   0  0
    5.4335   -1.6744   -1.4948 C   0  0
    5.9139   -2.0732   -0.4603 O   0  0
    4.1311   -0.9166   -1.4779 C   0  0
    3.6327   -0.7910   -0.0368 C   0  0
    2.3303   -0.0332   -0.0200 C   0  0
    1.1402   -0.6955   -0.0256 C   0  0
   -0.0044   -0.0081   -0.0100 N   0  0
   -0.0161    1.2981    0.0108 C   0  0
    1.1266    2.0122    0.0174 N   0  0
    2.3179    1.3768    0.0024 C   0  0
    3.3611    2.0089    0.0085 O   0  0
   -1.3374    2.0227    0.0213 C   0  0
    1.1152   -2.2021   -0.0488 C   0  0
   11.4287   -5.4340   -9.3768 H   0  0
   11.6059   -3.6939   -9.6532 H   0  0
   10.0714   -4.5256  -10.2003 H   0  0
    8.3153   -4.0996   -8.6474 H   0  0
    7.5024   -3.6505   -6.3469 H   0  0
   12.3576   -4.2859   -7.1931 H   0  0
    9.5781   -3.7766   -3.3723 H   0  0
    7.1308   -3.6338   -2.1576 H   0  0
    8.0313   -2.0897   -1.9797 H   0  0
    4.2852    0.0871   -1.9008 H   0  0
    3.3837   -1.4565   -2.0778 H   0  0
    3.4780   -1.7944    0.3866 H   0  0
    4.3784   -0.2503    0.5645 H   0  0
    1.0913    3.0415    0.0339 H   0  0
   -1.8751    1.6423    0.9023 H   0  0
   -1.8737    1.6706   -0.8722 H   0  0
   -1.2328    3.1176    0.0388 H   0  0
    1.7001   -2.5117    0.8298 H   0  0
    1.6932   -2.4843   -0.9411 H   0  0
    0.1016   -2.6295   -0.0515 H   0  0
  1  2  1  0
  2  7  2  0
  2  3  1  0
  3  4  2  0
  4  5  1  0
  5  6  2  0
  5 11  1  0
  6  7  1  0
  6  8  1  0
  8  9  2  0
  8 10  2  0
 11 12  1  0
 12 13  2  0
 12 14  1  0
 14 15  1  0
 15 16  1  0
 16 17  2  0
 16 18  1  0
 18 19  1  0
 19 20  1  0
 20 25  1  0
 20 21  2  0
 21 22  1  0
 21 28  1  0
 22 23  2  0
 23 24  1  0
 23 27  1  0
 24 25  1  0
 25 26  2  0
  1 29  1  0
  1 30  1  0
  1 31  1  0
  3 32  1  0
  4 33  1  0
  7 34  1  0
 11 35  1  0
 14 36  1  0
 14 37  1  0
 18 38  1  0
 18 39  1  0
 19 40  1  0
 19 41  1  0
 24 42  1  0
 27 43  1  0
 27 44  1  0
 27 45  1  0
 28 46  1  0
 28 47  1  0
 28 48  1  0
M  END
> <Name>
ZINC25997200

> <reference>
BDB50021153

> <quality>
0.727

> <status>
decoy

$$$$
ZINC11261914
  SciTegic06061311253D

 51 53  0  0  1  0            999 V2000
    6.2780    8.3683   -4.2039 C   0  0
    4.9036    8.7305   -4.7048 C   0  0
    3.7893    8.0929   -4.1893 C   0  0
    2.4900    8.3841   -4.7161 C   0  0
    1.4592    8.6152   -5.1341 N   0  0
    3.9336    7.1525   -3.1408 C   0  0
    5.0414    6.8281   -2.7643 O   0  0
    2.7121    6.5540   -2.4921 C   0  0
    3.2235    5.3942   -1.1944 S   0  0
    1.7035    4.7880   -0.5412 C   0  0
    0.5024    5.1285   -0.9412 N   0  0
   -0.4278    4.4268   -0.1633 N   0  0
    0.2350    3.6771    0.6826 C   0  0
    1.5693    3.8779    0.4696 N   0  0
    2.6643    3.2352    1.2006 C   0  0
    3.0351    4.0870    2.4162 C   0  0  1  0  0  0
    4.1672    3.4055    3.2253 C   0  0
    4.8000    4.6320    3.9375 C   0  0
    4.6320    5.7463    2.8822 C   0  0
    3.5816    5.3467    1.9942 O   0  0
   -0.3216    2.8268    1.6294 N   0  0
   -0.1447    1.4196    1.2424 C   0  0
   -0.7179    0.5184    2.3393 C   0  0
   -2.0919    0.8523    2.5540 O   0  0
   -2.3007    2.2154    2.9330 C   0  0
   -1.7435    3.1338    1.8421 C   0  0
    4.7598    9.6764   -5.6559 N   0  0
    6.3668    7.2847   -4.3713 H   0  0
    6.2367    8.5269   -3.1162 H   0  0
    7.0899    8.9362   -4.6817 H   0  0
    2.1030    7.3550   -2.0479 H   0  0
    2.1190    6.0187   -3.2482 H   0  0
    2.3454    2.2374    1.5363 H   0  0
    3.5394    3.1379    0.5413 H   0  0
    2.1196    4.2131    3.0128 H   0  0
    3.7458    2.7078    3.9640 H   0  0
    4.8965    2.9364    2.5484 H   0  0
    5.8669    4.4516    4.1356 H   0  0
    4.2339    4.8795    4.8476 H   0  0
    5.5685    5.8684    2.3183 H   0  0
    4.3599    6.6893    3.3789 H   0  0
    0.9264    1.2047    1.1142 H   0  0
   -0.6744    1.2291    0.2974 H   0  0
   -0.6405   -0.5338    2.0279 H   0  0
   -0.1540    0.6691    3.2717 H   0  0
   -3.3779    2.4021    3.0545 H   0  0
   -1.7825    2.4175    3.8820 H   0  0
   -1.8499    4.1826    2.1562 H   0  0
   -2.2994    2.9711    0.9070 H   0  0
    5.5894   10.1511   -6.0397 H   0  0
    3.8204    9.9239   -5.9982 H   0  0
  1  2  1  0
  2  3  2  0
  2 27  1  0
  3  4  1  0
  3  6  1  0
  4  5  3  0
  6  7  2  0
  6  8  1  0
  8  9  1  0
  9 10  1  0
 10 14  1  0
 10 11  2  0
 11 12  1  0
 12 13  2  0
 13 14  1  0
 13 21  1  0
 14 15  1  0
 15 16  1  0
 16 20  1  0
 16 17  1  0
 17 18  1  0
 18 19  1  0
 19 20  1  0
 21 26  1  0
 21 22  1  0
 22 23  1  0
 23 24  1  0
 24 25  1  0
 25 26  1  0
  1 28  1  0
  1 29  1  0
  1 30  1  0
  8 31  1  0
  8 32  1  0
 15 33  1  0
 15 34  1  0
 16 35  1  0
 17 36  1  0
 17 37  1  0
 18 38  1  0
 18 39  1  0
 19 40  1  0
 19 41  1  0
 22 42  1  0
 22 43  1  0
 23 44  1  0
 23 45  1  0
 25 46  1  0
 25 47  1  0
 26 48  1  0
 26 49  1  0
 27 50  1  0
 27 51  1  0
M  END
> <Name>
ZINC11261914

> <reference>
BDB50021153

> <quality>
0.724

> <status>
decoy

$$$$
ZINC10549317
  SciTegic06061311253D

 42 43  0  0  0  0            999 V2000
   -8.5991   10.5221    2.4854 C   0  0
   -8.5235    9.3123    1.6860 O   0  0
   -7.3565    8.6398    1.7034 C   0  0
   -6.4274    9.0526    2.3681 O   0  0
   -7.2065    7.4000    0.9140 C   0  0
   -5.9997    6.7028    0.9308 C   0  0
   -5.8668    5.5349    0.1832 C   0  0
   -6.9406    5.0732   -0.5825 C   0  0
   -8.1351    5.7654   -0.5902 C   0  0
   -8.2740    6.9238    0.1485 C   0  0
   -9.2701    5.2672   -1.3993 N   0  0
  -10.3234    5.8786   -1.4125 O   0  0
   -9.1506    4.2457   -2.0519 O   0  0
   -4.5906    4.7890    0.1950 C   0  0
   -3.6556    5.1945    0.8578 O   0  0
   -4.4637    3.6592   -0.5288 N   0  0
   -3.2941    2.8942   -0.4338 C   0  0
   -2.8240    2.2038   -1.5432 C   0  0
   -1.6713    1.4498   -1.4497 C   0  0
   -0.9818    1.3818   -0.2460 C   0  0
   -1.4549    2.0681    0.8650 C   0  0
   -2.6050    2.8260    0.7699 C   0  0
    0.1860    0.6174   -0.1509 N   0  0
    1.5209    1.2360    0.6092 S   0  0
    1.0548    1.6393    1.8895 O   0  0
    2.5107    0.2241    0.4842 O   0  0
    1.9852    2.6887   -0.3729 C   0  0
   -7.7926   11.1798    2.1291 H   0  0
   -8.3628   10.2264    3.5182 H   0  0
   -9.5813   11.0130    2.4192 H   0  0
   -5.1560    7.0731    1.5317 H   0  0
   -6.8339    4.1561   -1.1805 H   0  0
   -9.2271    7.4728    0.1343 H   0  0
   -5.2267    3.3583   -1.1518 H   0  0
   -3.3701    2.2577   -2.4965 H   0  0
   -1.2990    0.9029   -2.3285 H   0  0
   -0.9133    2.0078    1.8205 H   0  0
   -2.9755    3.3758    1.6476 H   0  0
    0.2155   -0.3301   -0.5536 H   0  0
    1.1891    3.4478   -0.3748 H   0  0
    2.2544    2.4122   -1.4030 H   0  0
    2.8736    3.1392    0.0938 H   0  0
  1  2  1  0
  2  3  1  0
  3  4  2  0
  3  5  1  0
  5 10  2  0
  5  6  1  0
  6  7  2  0
  7  8  1  0
  7 14  1  0
  8  9  2  0
  9 10  1  0
  9 11  1  0
 11 12  2  0
 11 13  2  0
 14 15  2  0
 14 16  1  0
 16 17  1  0
 17 22  2  0
 17 18  1  0
 18 19  2  0
 19 20  1  0
 20 21  2  0
 20 23  1  0
 21 22  1  0
 23 24  1  0
 24 25  2  0
 24 26  2  0
 24 27  1  0
  1 28  1  0
  1 29  1  0
  1 30  1  0
  6 31  1  0
  8 32  1  0
 10 33  1  0
 16 34  1  0
 18 35  1  0
 19 36  1  0
 21 37  1  0
 22 38  1  0
 23 39  1  0
 27 40  1  0
 27 41  1  0
 27 42  1  0
M  END
> <Name>
ZINC10549317

> <reference>
BDB50021153

> <quality>
0.722

> <status>
decoy

$$$$
ZINC02560720
  SciTegic06061311253D

 42 44  0  0  1  0            999 V2000
    0.3344    2.0729    0.6815 C   0  0
   -0.9194    2.6506    0.5920 C   0  0
   -1.0431    4.0209    0.4471 C   0  0
    0.0840    4.8126    0.3807 C   0  0
    1.3501    4.2401    0.4641 C   0  0
    1.4672    2.8571    0.6158 C   0  0
    2.3806    5.3033    0.3659 C   0  0
    3.7749    5.2381    0.3955 C   0  0
    4.5211    6.3926    0.2829 C   0  0
    3.8934    7.6172    0.1399 C   0  0
    2.5121    7.6892    0.1090 C   0  0
    1.7582    6.5401    0.2212 C   0  0
    0.2681    6.3020    0.2222 C   0  0  1  0  0  0
   -0.3411    6.7701   -1.1010 C   0  0
   -1.7863    6.6446   -1.0398 O   0  0
   -2.4791    7.0177   -2.1322 C   0  0
   -1.8921    7.4368   -3.1101 O   0  0
   -3.8237    6.9264   -2.1412 N   0  0
   -4.5776    7.3324   -3.3300 C   0  0  1  0  0  0
   -5.7959    6.4221   -3.4968 C   0  0
   -6.6461    6.8278   -5.0470 S   0  0
   -5.4707    5.9765   -6.4948 S   0  0
   -5.9710    6.4325   -7.7442 O   0  0
   -4.1224    6.1791   -6.0943 O   0  0
   -5.7171    4.4753   -6.4493 O   0  5
   -5.0112    8.6858   -3.1798 O   0  0
    0.4283    0.9840    0.8055 H   0  0
   -1.8193    2.0195    0.6361 H   0  0
   -2.0412    4.4792    0.3848 H   0  0
    2.4623    2.3932    0.6829 H   0  0
    4.2781    4.2665    0.5086 H   0  0
    5.6196    6.3395    0.3069 H   0  0
    4.4934    8.5348    0.0507 H   0  0
    2.0149    8.6638   -0.0052 H   0  0
   -0.2288    6.8583    1.0307 H   0  0
   -0.0721    7.8221   -1.2768 H   0  0
    0.0455    6.1504   -1.9235 H   0  0
   -4.3213    6.5712   -1.3123 H   0  0
   -3.9340    7.2500   -4.2182 H   0  0
   -6.4846    6.5708   -2.6521 H   0  0
   -5.4686    5.3722   -3.5227 H   0  0
   -4.2235    9.2757   -3.0720 H   0  0
  1  6  2  0
  1  2  1  0
  2  3  2  0
  3  4  1  0
  4 13  1  0
  4  5  2  0
  5  6  1  0
  5  7  1  0
  7 12  2  0
  7  8  1  0
  8  9  2  0
  9 10  1  0
 10 11  2  0
 11 12  1  0
 12 13  1  0
 13 14  1  0
 14 15  1  0
 15 16  1  0
 16 17  2  0
 16 18  1  0
 18 19  1  0
 19 20  1  0
 19 26  1  0
 20 21  1  0
 21 22  1  0
 22 23  2  0
 22 24  2  0
 22 25  1  0
  1 27  1  0
  2 28  1  0
  3 29  1  0
  6 30  1  0
  8 31  1  0
  9 32  1  0
 10 33  1  0
 11 34  1  0
 13 35  1  0
 14 36  1  0
 14 37  1  0
 18 38  1  0
 19 39  1  0
 20 40  1  0
 20 41  1  0
 26 42  1  0
M  CHG  1  25  -1
M  END
> <Name>
ZINC02560720

> <reference>
BDB50021153

> <quality>
0.720

> <status>
decoy

$$$$
ZINC30421433
  SciTegic06061311253D

 51 53  0  0  0  0            999 V2000
    9.5008    8.5823   -0.0719 C   0  0
    9.2202    7.2794    0.5361 N   0  0
    9.6926    6.1535   -0.0347 C   0  0
   10.4291    6.2241   -1.0009 O   0  0
    9.3190    4.8433    0.5086 C   0  0
    8.5888    4.6148    1.6556 C   0  0
    8.4675    3.2289    1.7961 C   0  0
    9.1157    2.6477    0.7584 C   0  0
    9.6332    3.6179   -0.0340 N   0  0
   10.4037    3.3988   -1.2606 C   0  0
    7.6271    2.3876    3.0964 S   0  0
    7.5997    3.2770    4.2043 O   0  0
    8.1985    1.0890    3.1758 O   0  0
    6.0562    2.1848    2.6133 N   0  0
    5.7481    1.3326    1.4622 C   0  0
    4.2746    1.0167    1.4512 C   0  0
    3.7834   -0.1021    2.1103 C   0  0
    2.4280   -0.3624    2.0809 C   0  0
    1.5989    0.4400    1.4403 N   0  0
    2.0293    1.5121    0.7967 C   0  0
    3.3803    1.8354    0.7842 C   0  0
    1.1422    2.3070    0.1469 O   0  0
   -0.2327    1.9208    0.1970 C   0  0  1  0  0  0
   -0.9513    2.6258    1.3740 C   0  0
   -2.4378    2.5997    0.9274 C   0  0
   -2.3812    2.8495   -0.5939 C   0  0
   -0.9791    2.4178   -1.0583 C   0  0
    9.1179    8.5071   -1.1004 H   0  0
   10.5975    8.6387   -0.1355 H   0  0
    9.0679    9.4323    0.4759 H   0  0
    8.6619    7.2237    1.3998 H   0  0
    8.1789    5.3788    2.3326 H   0  0
    9.2072    1.5650    0.5868 H   0  0
   11.3313    3.9565   -1.0645 H   0  0
    9.8483    3.9916   -2.0023 H   0  0
   10.5672    2.3525   -1.5582 H   0  0
    5.2958    2.6578    3.1221 H   0  0
    6.3224    0.3971    1.5330 H   0  0
    6.0167    1.8585    0.5341 H   0  0
    4.4669   -0.7739    2.6502 H   0  0
    2.0341   -1.2498    2.5979 H   0  0
    3.7344    2.7302    0.2513 H   0  0
   -0.2477    0.8248    0.2899 H   0  0
   -0.8219    2.0483    2.3012 H   0  0
   -0.6007    3.6640    1.4698 H   0  0
   -2.9968    3.4075    1.4224 H   0  0
   -2.8771    1.6122    1.1322 H   0  0
   -2.5304    3.9190   -0.8036 H   0  0
   -3.1454    2.2420   -1.1008 H   0  0
   -1.0640    1.6018   -1.7911 H   0  0
   -0.4486    3.2783   -1.4921 H   0  0
  1  2  1  0
  2  3  1  0
  3  4  2  0
  3  5  1  0
  5  9  1  0
  5  6  2  0
  6  7  1  0
  7  8  2  0
  7 11  1  0
  8  9  1  0
  9 10  1  0
 11 12  2  0
 11 13  2  0
 11 14  1  0
 14 15  1  0
 15 16  1  0
 16 21  2  0
 16 17  1  0
 17 18  2  0
 18 19  1  0
 19 20  2  0
 20 21  1  0
 20 22  1  0
 22 23  1  0
 23 27  1  0
 23 24  1  0
 24 25  1  0
 25 26  1  0
 26 27  1  0
  1 28  1  0
  1 29  1  0
  1 30  1  0
  2 31  1  0
  6 32  1  0
  8 33  1  0
 10 34  1  0
 10 35  1  0
 10 36  1  0
 14 37  1  0
 15 38  1  0
 15 39  1  0
 17 40  1  0
 18 41  1  0
 21 42  1  0
 23 43  1  0
 24 44  1  0
 24 45  1  0
 25 46  1  0
 25 47  1  0
 26 48  1  0
 26 49  1  0
 27 50  1  0
 27 51  1  0
M  END
> <Name>
ZINC30421433

> <reference>
BDB50021153

> <quality>
0.719

> <status>
decoy

$$$$
ZINC30852367
  SciTegic06061311253D

 49 50  0  0  0  0            999 V2000
   -8.4400   -5.1750    0.7375 C   0  0
   -7.1203   -4.5451    0.6489 N   0  0
   -5.9115   -5.3726    0.6592 C   0  0
   -7.0184   -3.2043    0.5579 C   0  0
   -8.0191   -2.5192    0.5494 O   0  0
   -5.6608   -2.5563    0.4668 C   0  0
   -5.8147   -1.1383    0.3800 O   0  0
   -4.6775   -0.3982    0.2908 C   0  0
   -4.7550    0.9841    0.2036 C   0  0
   -3.6005    1.7363    0.1130 C   0  0
   -2.3618    1.1087    0.1097 C   0  0
   -2.2853   -0.2754    0.1917 C   0  0
   -3.4404   -1.0259    0.2875 C   0  0
   -1.1906    1.8709    0.0179 N   0  0
   -1.1255    3.0801    0.6094 C   0  0
   -2.1105    3.5463    1.1514 O   0  0
    0.1340    3.8314    0.6054 C   0  0
    0.3460    5.0699    1.1732 C   0  0
    1.6818    5.4079    0.9349 C   0  0
    2.2499    4.3927    0.2412 C   0  0
    1.3214    3.4261    0.0392 N   0  0
    2.4834    6.8916    1.4456 S   0  0
    3.5817    7.0837    0.5647 O   0  0
    1.4636    7.8664    1.6155 O   0  0
    3.1241    6.6103    2.9465 N   0  0
    4.4865    6.0872    3.0751 C   0  0
    2.3286    6.8846    4.1457 C   0  0
   -8.4064   -5.7710    1.6615 H   0  0
   -8.4700   -5.8858   -0.1015 H   0  0
   -9.2820   -4.4674    0.7218 H   0  0
   -6.0439   -6.0754   -0.1766 H   0  0
   -5.9803   -5.9606    1.5863 H   0  0
   -4.9724   -4.8042    0.5883 H   0  0
   -5.0740   -2.8067    1.3628 H   0  0
   -5.1375   -2.9231   -0.4286 H   0  0
   -5.7363    1.4811    0.2066 H   0  0
   -3.6621    2.8324    0.0435 H   0  0
   -1.3048   -0.7738    0.1803 H   0  0
   -3.3796   -2.1217    0.3612 H   0  0
   -0.3789    1.5074   -0.5017 H   0  0
   -0.3959    5.6775    1.7121 H   0  0
    3.2944    4.3583   -0.1022 H   0  0
    1.4782    2.5364   -0.4556 H   0  0
    5.1103    6.8061    2.5237 H   0  0
    4.4821    5.1599    2.4834 H   0  0
    4.8288    5.9312    4.1088 H   0  0
    1.4103    6.2950    4.0074 H   0  0
    2.0387    7.9412    4.0477 H   0  0
    2.8342    6.6683    5.0984 H   0  0
  1  2  1  0
  2  3  1  0
  2  4  1  0
  4  5  2  0
  4  6  1  0
  6  7  1  0
  7  8  1  0
  8 13  2  0
  8  9  1  0
  9 10  2  0
 10 11  1  0
 11 12  2  0
 11 14  1  0
 12 13  1  0
 14 15  1  0
 15 16  2  0
 15 17  1  0
 17 21  1  0
 17 18  2  0
 18 19  1  0
 19 20  2  0
 19 22  1  0
 20 21  1  0
 22 23  2  0
 22 24  2  0
 22 25  1  0
 25 26  1  0
 25 27  1  0
  1 28  1  0
  1 29  1  0
  1 30  1  0
  3 31  1  0
  3 32  1  0
  3 33  1  0
  6 34  1  0
  6 35  1  0
  9 36  1  0
 10 37  1  0
 12 38  1  0
 13 39  1  0
 14 40  1  0
 18 41  1  0
 20 42  1  0
 21 43  1  0
 26 44  1  0
 26 45  1  0
 26 46  1  0
 27 47  1  0
 27 48  1  0
 27 49  1  0
M  END
> <Name>
ZINC30852367

> <reference>
BDB50021153

> <quality>
0.717

> <status>
decoy

$$$$
ZINC31147712
  SciTegic06061311253D

 49 50  0  0  0  0            999 V2000
   -0.8070    1.6517   -3.7487 C   0  0
   -0.0674    1.1336   -2.5136 C   0  0
   -0.7786    1.6231   -1.2505 C   0  0
   -0.0390    1.1050   -0.0155 C   0  0
   -0.7200    1.5738    1.1940 N   0  0
   -1.6953    0.8173    1.7310 C   0  0
   -2.0043   -0.2437    1.2144 O   0  0
   -2.3584    1.2601    2.8971 C   0  0
   -1.9755    2.4525    3.4357 C   0  0
   -0.9389    3.1743    2.7961 C   0  0
   -0.3667    2.6924    1.7157 N   0  0
   -0.4944    4.4714    3.3493 C   0  0
   -1.0188    4.9166    4.3517 O   0  0
    0.4922    5.1604    2.7422 N   0  0
    0.8345    6.4401    3.1963 C   0  0
   -0.0986    7.2097    3.8760 C   0  0
    0.2430    8.4706    4.3268 C   0  0
    1.5103    8.9723    4.0936 C   0  0
    2.4439    8.2132    3.4128 C   0  0
    2.1111    6.9463    2.9617 C   0  0
    3.0283    6.1985    2.2919 O   0  0
   -0.9413    9.4439    5.1957 S   0  0
   -1.8765    8.5360    5.7616 O   0  0
   -0.2061   10.3701    5.9837 O   0  0
   -1.7669   10.3323    4.0681 N   0  0
   -2.9830    9.7909    3.4563 C   0  0
   -1.2813   11.6596    3.6825 C   0  0
   -0.8165    2.7516   -3.7371 H   0  0
   -1.8410    1.2766   -3.7423 H   0  0
   -0.2961    1.3001   -4.6572 H   0  0
   -0.0586    0.0337   -2.5259 H   0  0
    0.9667    1.5086   -2.5199 H   0  0
   -0.7874    2.7230   -1.2374 H   0  0
   -1.8126    1.2480   -1.2419 H   0  0
   -0.0303    0.0051   -0.0278 H   0  0
    0.9951    1.4800   -0.0219 H   0  0
   -3.1588    0.6614    3.3563 H   0  0
   -2.4590    2.8434    4.3431 H   0  0
    0.9944    4.7457    1.9443 H   0  0
   -1.1100    6.8163    4.0560 H   0  0
    1.7763    9.9781    4.4507 H   0  0
    3.4512    8.6152    3.2292 H   0  0
    2.5951    5.9773    1.4296 H   0  0
   -3.6376    9.5545    4.3081 H   0  0
   -2.6696    8.8279    3.0269 H   0  0
   -3.4649   10.4494    2.7187 H   0  0
   -0.2473   11.4879    3.3489 H   0  0
   -1.2154   12.2143    4.6301 H   0  0
   -1.8920   12.1768    2.9278 H   0  0
  1  2  1  0
  2  3  1  0
  3  4  1  0
  4  5  1  0
  5 11  1  0
  5  6  1  0
  6  7  2  0
  6  8  1  0
  8  9  2  0
  9 10  1  0
 10 11  2  0
 10 12  1  0
 12 13  2  0
 12 14  1  0
 14 15  1  0
 15 20  2  0
 15 16  1  0
 16 17  2  0
 17 18  1  0
 17 22  1  0
 18 19  2  0
 19 20  1  0
 20 21  1  0
 22 23  2  0
 22 24  2  0
 22 25  1  0
 25 26  1  0
 25 27  1  0
  1 28  1  0
  1 29  1  0
  1 30  1  0
  2 31  1  0
  2 32  1  0
  3 33  1  0
  3 34  1  0
  4 35  1  0
  4 36  1  0
  8 37  1  0
  9 38  1  0
 14 39  1  0
 16 40  1  0
 18 41  1  0
 19 42  1  0
 21 43  1  0
 26 44  1  0
 26 45  1  0
 26 46  1  0
 27 47  1  0
 27 48  1  0
 27 49  1  0
M  END
> <Name>
ZINC31147712

> <reference>
BDB50021153

> <quality>
0.715

> <status>
decoy

$$$$
ZINC24999659
  SciTegic06061311253D

 51 52  0  0  1  0            999 V2000
    7.0313   -2.2886   11.0393 C   0  0
    7.2833   -2.5574    9.5781 C   0  0
    6.3551   -2.5480    8.5935 C   0  0
    7.0028   -2.8402    7.3887 C   0  0
    8.2733   -3.0238    7.6417 N   0  0
    8.4745   -2.8539    9.0176 N   0  0
    9.7534   -2.9716    9.7225 C   0  0
    4.8846   -2.2660    8.7640 C   0  0  2  0  0  0
    4.1798   -3.5245    9.2744 C   0  0
    4.3100   -1.8734    7.4748 N   0  0
    3.1995   -1.1107    7.4363 C   0  0
    2.6740   -0.7480    8.4725 O   0  0
    2.6259   -0.7187    6.1492 C   0  0
    1.5137    0.0451    6.1106 C   0  0
    0.9371    0.4391    4.8171 C   0  0
    1.5398    0.0237    3.6238 C   0  0
    0.9930    0.3909    2.4152 C   0  0
   -0.1494    1.1825    2.3782 C   0  0
   -0.7517    1.5977    3.5601 C   0  0
   -0.2159    1.2311    4.7743 C   0  0
   -2.2037    2.5943    3.5045 S   0  0
   -3.0960    1.9616    2.5974 O   0  0
   -2.5576    2.8720    4.8524 O   0  0
   -1.7788    4.0407    2.8191 N   0  0
   -1.3344    4.0877    1.4239 C   0  0
   -0.6816    1.5467    1.1837 O   0  0
   -0.0127    1.0858    0.0080 C   0  0
    7.7422   -1.4787   11.2601 H   0  0
    7.4401   -3.1883   11.5225 H   0  0
    5.9927   -2.0617   11.3217 H   0  0
    6.5263   -2.9045    6.3993 H   0  0
    9.5289   -3.7135   10.5030 H   0  0
    9.8309   -2.0044   10.2406 H   0  0
   10.6318   -3.2210    9.1091 H   0  0
    4.7494   -1.4502    9.4894 H   0  0
    4.6104   -3.8201   10.2425 H   0  0
    4.3142   -4.3408    8.5495 H   0  0
    3.1063   -3.3194    9.3991 H   0  0
    4.7547   -2.1803    6.5979 H   0  0
    3.1009   -1.0463    5.2127 H   0  0
    1.0388    0.3727    7.0471 H   0  0
    2.4488   -0.5951    3.6520 H   0  0
    1.4606    0.0575    1.4770 H   0  0
   -0.6933    1.5602    5.7091 H   0  0
   -1.8270    4.9073    3.3737 H   0  0
   -2.1563    3.6252    0.8577 H   0  0
   -0.4905    3.3835    1.3802 H   0  0
   -1.0726    5.0897    1.0530 H   0  0
    0.0146   -0.0116    0.0778 H   0  0
    1.0216    1.4541    0.0760 H   0  0
   -0.5018    1.4207   -0.9186 H   0  0
  1  2  1  0
  2  6  1  0
  2  3  2  0
  3  4  1  0
  3  8  1  0
  4  5  2  0
  5  6  1  0
  6  7  1  0
  8  9  1  0
  8 10  1  0
 10 11  1  0
 11 12  2  0
 11 13  1  0
 13 14  2  0
 14 15  1  0
 15 20  2  0
 15 16  1  0
 16 17  2  0
 17 18  1  0
 18 19  2  0
 18 26  1  0
 19 20  1  0
 19 21  1  0
 21 22  2  0
 21 23  2  0
 21 24  1  0
 24 25  1  0
 26 27  1  0
  1 28  1  0
  1 29  1  0
  1 30  1  0
  4 31  1  0
  7 32  1  0
  7 33  1  0
  7 34  1  0
  8 35  1  0
  9 36  1  0
  9 37  1  0
  9 38  1  0
 10 39  1  0
 13 40  1  0
 14 41  1  0
 16 42  1  0
 17 43  1  0
 20 44  1  0
 24 45  1  0
 25 46  1  0
 25 47  1  0
 25 48  1  0
 27 49  1  0
 27 50  1  0
 27 51  1  0
M  END
> <Name>
ZINC24999659

> <reference>
BDB50021153

> <quality>
0.711

> <status>
decoy

$$$$
ZINC30683570
  SciTegic06061311253D

 53 55  0  0  1  0            999 V2000
    5.7878    3.1174   -0.0358 C   0  0
    4.8240    1.9292   -0.0328 C   0  0
    3.4560    2.4157   -0.0176 O   0  0
    2.4763    1.4884   -0.0132 C   0  0
    2.7585    0.3054   -0.0218 O   0  0
    1.0725    1.9063    0.0021 C   0  0
   -0.0126    1.0758    0.0080 C   0  0
   -1.1495    1.8979    0.0171 C   0  0
   -0.7151    3.1779    0.0260 C   0  0
    0.6239    3.1788    0.0132 O   0  0
   -1.7419    4.6097    0.0426 S   0  0
   -0.9717    5.6683   -0.5100 O   0  0
   -2.9956    4.2167   -0.4987 O   0  0
   -2.0127    4.9996    1.6291 N   0  0
   -1.1800    5.9005    2.4467 C   0  0
   -1.4427    5.4645    3.9098 C   0  0
   -2.9532    5.1130    3.8636 C   0  0
   -3.1269    4.5097    2.4538 C   0  0  1  0  0  0
   -4.4384    4.9557    1.8605 C   0  0
   -4.4503    5.6198    0.8457 O   0  0
   -5.5982    4.6166    2.4575 N   0  0
   -6.8175    5.0313    1.9059 N   0  0
   -8.0084    4.6831    2.5190 C   0  0
   -7.9776    3.9526    3.6240 N   0  0
   -9.0974    3.6074    4.2377 C   0  0
  -10.3121    4.0095    3.7050 C   0  0
  -10.3082    4.7680    2.5449 C   0  0
   -9.1525    5.0836    1.9841 N   0  0
  -11.6050    5.2272    1.9296 C   0  0
   -9.0532    2.7811    5.4973 C   0  0
    5.6254    3.7248    0.8668 H   0  0
    5.6087    3.7339   -0.9290 H   0  0
    6.8244    2.7495   -0.0473 H   0  0
    4.9869    1.3225   -0.9358 H   0  0
    5.0031    1.3127    0.8604 H   0  0
    0.0023   -0.0241    0.0060 H   0  0
   -2.1975    1.5636    0.0170 H   0  0
   -0.1172    5.7629    2.1987 H   0  0
   -1.4963    6.9442    2.3034 H   0  0
   -1.2660    6.3036    4.5987 H   0  0
   -0.8493    4.5717    4.1564 H   0  0
   -3.1930    4.3621    4.6309 H   0  0
   -3.5605    6.0246    3.9645 H   0  0
   -3.1270    3.4106    2.4981 H   0  0
   -5.5881    4.0526    3.3193 H   0  0
   -6.8276    5.5953    1.0441 H   0  0
  -11.2586    3.7327    4.1923 H   0  0
  -12.1152    5.7846    2.7290 H   0  0
  -12.1800    4.3047    1.7611 H   0  0
  -11.4804    5.8216    1.0124 H   0  0
   -8.4218    3.3540    6.1924 H   0  0
   -8.4963    1.8729    5.2234 H   0  0
  -10.0453    2.5569    5.9163 H   0  0
  1  2  1  0
  2  3  1  0
  3  4  1  0
  4  5  2  0
  4  6  1  0
  6 10  1  0
  6  7  2  0
  7  8  1  0
  8  9  2  0
  9 10  1  0
  9 11  1  0
 11 12  2  0
 11 13  2  0
 11 14  1  0
 14 18  1  0
 14 15  1  0
 15 16  1  0
 16 17  1  0
 17 18  1  0
 18 19  1  0
 19 20  2  0
 19 21  1  0
 21 22  1  0
 22 23  1  0
 23 28  2  0
 23 24  1  0
 24 25  2  0
 25 26  1  0
 25 30  1  0
 26 27  2  0
 27 28  1  0
 27 29  1  0
  1 31  1  0
  1 32  1  0
  1 33  1  0
  2 34  1  0
  2 35  1  0
  7 36  1  0
  8 37  1  0
 15 38  1  0
 15 39  1  0
 16 40  1  0
 16 41  1  0
 17 42  1  0
 17 43  1  0
 18 44  1  0
 21 45  1  0
 22 46  1  0
 26 47  1  0
 29 48  1  0
 29 49  1  0
 29 50  1  0
 30 51  1  0
 30 52  1  0
 30 53  1  0
M  END
> <Name>
ZINC30683570

> <reference>
BDB50017122

> <quality>
0.887

> <status>
decoy

$$$$
ZINC09303429
  SciTegic06061311253D

 59 62  0  0  0  0            999 V2000
    2.3460   11.1710    7.0997 C   0  0
    3.3165   10.1805    6.7543 O   0  0
    2.8463    8.9805    6.3201 C   0  0
    1.4799    8.7642    6.2295 C   0  0
    0.9987    7.5478    5.7893 C   0  0
    1.8866    6.5337    5.4346 C   0  0
    3.2603    6.7482    5.5307 C   0  0
    3.7380    7.9710    5.9675 C   0  0
    5.0780    8.1851    6.0575 O   0  0
    5.9342    7.1053    5.6794 C   0  0
    1.3702    5.2262    4.9614 C   0  0
    1.8414    4.6696    3.8158 C   0  0
    1.4043    3.4948    3.3547 O   0  0
    0.4628    2.7593    3.9783 C   0  0
   -0.1180    3.2168    5.1743 C   0  0
    0.3283    4.5118    5.7189 C   0  0
   -0.1324    4.9631    6.7533 O   0  0
   -1.0887    2.4542    5.8246 C   0  0
   -1.4797    1.2583    5.2926 C   0  0
   -0.9137    0.7980    4.1059 C   0  0
    0.0504    1.5438    3.4487 C   0  0
    0.6549    1.0346    2.1656 C   0  0
    0.5454    1.2401   -0.2449 C   0  0
   -0.3472    1.6807   -1.4075 C   0  0
   -1.3360    3.3855   -0.0023 C   0  0
   -0.4434    2.9449    1.1603 C   0  0
   -1.4446    3.5911   -2.4129 C   0  0
   -1.8198    5.0579   -2.1926 C   0  0
   -0.6319    5.8504   -2.1381 O   0  0
   -1.3112   -0.3924    3.5886 O   0  5
   -0.1637    1.4996    1.0255 N   0  0
   -0.6263    3.1257   -1.2727 N   0  0
    1.7103   10.7231    7.8777 H   0  0
    1.7263   11.3225    6.2036 H   0  0
    2.8016   12.1122    7.4411 H   0  0
    0.7779    9.5636    6.5090 H   0  0
   -0.0859    7.3787    5.7184 H   0  0
    3.9634    5.9468    5.2598 H   0  0
    5.6723    6.8517    4.6416 H   0  0
    5.6556    6.2523    6.3157 H   0  0
    7.0012    7.3535    5.7789 H   0  0
    2.6131    5.2073    3.2454 H   0  0
   -1.5374    2.8146    6.7620 H   0  0
   -2.2451    0.6559    5.8037 H   0  0
    0.6746   -0.0651    2.1785 H   0  0
    1.6797    1.4211    2.0633 H   0  0
    1.4856    1.8107   -0.2644 H   0  0
    0.7609    0.1650   -0.3329 H   0  0
    0.1696    1.4931   -2.3603 H   0  0
   -1.2929    1.1195   -1.3804 H   0  0
   -1.5522    4.4605    0.0849 H   0  0
   -2.2757    2.8141    0.0177 H   0  0
    0.5019    3.5067    1.1323 H   0  0
   -0.9594    3.1322    2.1136 H   0  0
   -0.8662    3.4942   -3.3435 H   0  0
   -2.3592    2.9837   -2.4807 H   0  0
   -2.4527    5.4034   -3.0233 H   0  0
   -2.3705    5.1584   -1.2457 H   0  0
   -0.1356    5.7618   -2.9901 H   0  0
  1  2  1  0
  2  3  1  0
  3  8  2  0
  3  4  1  0
  4  5  2  0
  5  6  1  0
  6  7  2  0
  6 11  1  0
  7  8  1  0
  8  9  1  0
  9 10  1  0
 11 16  1  0
 11 12  2  0
 12 13  1  0
 13 14  1  0
 14 21  2  0
 14 15  1  0
 15 16  1  0
 15 18  2  0
 16 17  2  0
 18 19  1  0
 19 20  2  0
 20 21  1  0
 20 30  1  0
 21 22  1  0
 22 31  1  0
 23 24  1  0
 23 31  1  0
 24 32  1  0
 25 26  1  0
 25 32  1  0
 26 31  1  0
 27 28  1  0
 27 32  1  0
 28 29  1  0
  1 33  1  0
  1 34  1  0
  1 35  1  0
  4 36  1  0
  5 37  1  0
  7 38  1  0
 10 39  1  0
 10 40  1  0
 10 41  1  0
 12 42  1  0
 18 43  1  0
 19 44  1  0
 22 45  1  0
 22 46  1  0
 23 47  1  0
 23 48  1  0
 24 49  1  0
 24 50  1  0
 25 51  1  0
 25 52  1  0
 26 53  1  0
 26 54  1  0
 27 55  1  0
 27 56  1  0
 28 57  1  0
 28 58  1  0
 29 59  1  0
M  CHG  1  30  -1
M  END
> <Name>
ZINC09303429

> <reference>
BDB50017122

> <quality>
0.874

> <status>
decoy

$$$$
ZINC32081998
  SciTegic06061311253D

 49 50  0  0  0  0            999 V2000
    1.3545   -0.9607   -0.7290 C   0  0
    0.0391   -0.2371   -0.5984 C   0  0
   -0.9745   -0.7372   -1.0385 O   0  0
   -0.0111    0.9658    0.0074 N   0  0
   -1.2143    1.6789    0.0484 C   0  0
   -1.2041    3.0658   -0.0287 C   0  0
   -2.3930    3.7676    0.0062 C   0  0
   -3.5933    3.0924    0.1297 C   0  0
   -3.6076    1.7101    0.2126 C   0  0
   -2.4198    1.0018    0.1719 C   0  0
   -4.7819    1.0529    0.3327 F   0  0
   -5.1073    3.9923    0.1812 S   0  0
   -5.8397    3.4918    1.2913 O   0  0
   -4.7680    5.3659    0.0491 O   0  0
   -5.9657    3.5844   -1.1750 N   0  5
   -6.3326    2.2506   -1.3969 N   0  0
   -7.6262    1.9327   -1.6019 C   0  0
   -8.4747    2.8034   -1.5942 O   0  0
   -8.0127    0.5274   -1.8357 C   0  0
   -7.0380   -0.4732   -1.8505 C   0  0
   -7.4032   -1.7891   -2.0650 C   0  0
   -8.7398   -2.1161   -2.2770 C   0  0
   -9.7126   -1.1201   -2.2676 C   0  0
   -9.3533    0.1966   -2.0483 C   0  0
  -11.0175   -1.4428   -2.4746 O   0  0
  -11.9623   -0.3710   -2.4520 C   0  0
   -9.0956   -3.4097   -2.4932 O   0  0
   -9.1077   -3.8613   -3.8489 C   0  0
   -6.4554   -2.7644   -2.0739 O   0  0
   -5.1039   -2.3579   -1.8495 C   0  0
    1.4856   -1.1389   -1.8065 H   0  0
    1.2016   -1.9369   -0.2456 H   0  0
    2.1990   -0.4073   -0.2924 H   0  0
    0.8363    1.3602    0.4402 H   0  0
   -0.2494    3.6049   -0.1175 H   0  0
   -2.3851    4.8653   -0.0644 H   0  0
   -2.4307   -0.0962    0.2373 H   0  0
   -5.6137    1.5130   -1.4034 H   0  0
   -5.9808   -0.2142   -1.6916 H   0  0
  -10.1222    0.9832   -2.0412 H   0  0
  -11.6355    0.3455   -3.2200 H   0  0
  -11.8559    0.1144   -1.4706 H   0  0
  -12.9942   -0.7096   -2.6267 H   0  0
   -8.0945   -3.6893   -4.2412 H   0  0
   -9.7966   -3.1962   -4.3903 H   0  0
   -9.4050   -4.9161   -3.9433 H   0  0
   -5.0928   -1.8448   -0.8766 H   0  0
   -4.8718   -1.6140   -2.6259 H   0  0
   -4.3969   -3.2003   -1.8713 H   0  0
  1  2  1  0
  2  3  2  0
  2  4  1  0
  4  5  1  0
  5 10  2  0
  5  6  1  0
  6  7  2  0
  7  8  1  0
  8  9  2  0
  8 12  1  0
  9 10  1  0
  9 11  1  0
 12 13  2  0
 12 14  2  0
 12 15  1  0
 15 16  1  0
 16 17  1  0
 17 18  2  0
 17 19  1  0
 19 24  2  0
 19 20  1  0
 20 21  2  0
 21 22  1  0
 21 29  1  0
 22 23  2  0
 22 27  1  0
 23 24  1  0
 23 25  1  0
 25 26  1  0
 27 28  1  0
 29 30  1  0
  1 31  1  0
  1 32  1  0
  1 33  1  0
  4 34  1  0
  6 35  1  0
  7 36  1  0
 10 37  1  0
 16 38  1  0
 20 39  1  0
 24 40  1  0
 26 41  1  0
 26 42  1  0
 26 43  1  0
 28 44  1  0
 28 45  1  0
 28 46  1  0
 30 47  1  0
 30 48  1  0
 30 49  1  0
M  CHG  1  15  -1
M  END
> <Name>
ZINC32081998

> <reference>
BDB50017122

> <quality>
0.806

> <status>
decoy

$$$$
ZINC20754050
  SciTegic06061311253D

 56 58  0  0  0  0            999 V2000
    1.4222    7.7729    4.8758 C   0  0
    0.9028    8.3986    3.6525 N   0  0
    1.8056    8.1648    2.5174 C   0  0
    1.3262    8.9796    1.3114 C   0  0
   -0.0861    8.6551    1.0599 N   0  0
   -1.0305    8.7396    2.1843 C   0  0
   -0.4572    7.9285    3.3572 C   0  0
   -0.6006    8.2128   -0.4508 S   0  0
    0.3354    8.7537   -1.3731 O   0  0
   -1.9886    8.5111   -0.5106 O   0  0
   -0.4572    6.4599   -0.5575 C   0  0
    0.7220    5.8898   -1.0166 C   0  0
    0.8533    4.5218   -1.1081 C   0  0
   -0.2041    3.6949   -0.7369 C   0  0
   -1.3968    4.2744   -0.2724 C   0  0
   -1.5159    5.6616   -0.1854 C   0  0
   -2.5087    3.3874    0.1174 C   0  0
   -3.5651    3.8357    0.5272 O   0  0
   -2.2900    1.9382   -0.0139 C   0  0
   -1.0718    1.4873   -0.4780 C   0  0
   -0.0847    2.3248   -0.8226 N   0  0
   -3.3513    0.9857    0.3487 C   0  0
   -4.4218    1.3944    0.7569 O   0  0
   -3.1373   -0.3395    0.2285 N   0  0
   -4.1940   -1.2878    0.5895 C   0  0
   -3.6966   -2.7167    0.3615 C   0  0  1  0  0  0
   -3.3532   -2.8875   -1.0151 O   0  0
   -3.4389   -4.2387   -1.4722 C   0  0
   -2.5448   -2.9553    1.1729 O   0  0
   -2.1852   -4.3341    1.2805 C   0  0
    1.4324    6.6814    4.7400 H   0  0
    0.7563    8.0251    5.7143 H   0  0
    2.4402    8.1339    5.0842 H   0  0
    2.8249    8.4769    2.7886 H   0  0
    1.8046    7.0952    2.2605 H   0  0
    1.9270    8.7201    0.4272 H   0  0
    1.4247   10.0534    1.5289 H   0  0
   -2.0019    8.3190    1.8853 H   0  0
   -1.1524    9.7901    2.4870 H   0  0
   -1.0946    8.0650    4.2432 H   0  0
   -0.4268    6.8629    3.0858 H   0  0
    1.5610    6.5376   -1.3106 H   0  0
    1.7930    4.0825   -1.4742 H   0  0
   -2.4498    6.1151    0.1782 H   0  0
   -0.9053    0.4037   -0.5682 H   0  0
    0.8013    1.9277   -1.1663 H   0  0
   -2.2308   -0.6855   -0.1172 H   0  0
   -4.4581   -1.1568    1.6493 H   0  0
   -5.0811   -1.1052   -0.0348 H   0  0
   -4.4900   -3.4288    0.6326 H   0  0
   -4.4709   -4.5806   -1.3046 H   0  0
   -2.7660   -4.8437   -0.8467 H   0  0
   -3.1667   -4.3240   -2.5346 H   0  0
   -2.0033   -4.7098    0.2628 H   0  0
   -3.0491   -4.8703    1.7001 H   0  0
   -1.2955   -4.4716    1.9125 H   0  0
  1  2  1  0
  2  7  1  0
  2  3  1  0
  3  4  1  0
  4  5  1  0
  5  6  1  0
  5  8  1  0
  6  7  1  0
  8  9  2  0
  8 10  2  0
  8 11  1  0
 11 16  2  0
 11 12  1  0
 12 13  2  0
 13 14  1  0
 14 21  1  0
 14 15  2  0
 15 16  1  0
 15 17  1  0
 17 18  2  0
 17 19  1  0
 19 20  2  0
 19 22  1  0
 20 21  1  0
 22 23  2  0
 22 24  1  0
 24 25  1  0
 25 26  1  0
 26 27  1  0
 26 29  1  0
 27 28  1  0
 29 30  1  0
  1 31  1  0
  1 32  1  0
  1 33  1  0
  3 34  1  0
  3 35  1  0
  4 36  1  0
  4 37  1  0
  6 38  1  0
  6 39  1  0
  7 40  1  0
  7 41  1  0
 12 42  1  0
 13 43  1  0
 16 44  1  0
 20 45  1  0
 21 46  1  0
 24 47  1  0
 25 48  1  0
 25 49  1  0
 26 50  1  0
 28 51  1  0
 28 52  1  0
 28 53  1  0
 30 54  1  0
 30 55  1  0
 30 56  1  0
M  END
> <Name>
ZINC20754050

> <reference>
BDB50017122

> <quality>
0.793

> <status>
decoy

$$$$
ZINC22922647
  SciTegic06061311253D

 50 52  0  0  1  0            999 V2000
   -0.6356    5.9964   -3.8940 C   0  0
   -0.0250    5.0761   -2.9254 N   0  3
    1.3496    4.7350   -3.3173 C   0  0
    1.9210    3.7156   -2.3290 C   0  0
    1.8879    4.2804   -0.9727 N   0  0
    0.5132    4.6215   -0.5808 C   0  0
   -0.0581    5.6409   -1.5691 C   0  0
    2.4984    3.3600   -0.0042 C   0  0  1  0  0  0
    2.3452    3.9299    1.4074 C   0  0
    2.9074    5.2820    1.4519 N   0  0
    2.5592    6.2820    2.7251 S   0  0
    3.2640    7.4941    2.4940 O   0  0
    1.1496    6.2418    2.8995 O   0  0
    3.2659    5.5556    4.1665 C   0  0
    2.5220    4.6720    4.9296 C   0  0
    3.0695    4.0932    6.0597 C   0  0
    4.3610    4.4017    6.4406 C   0  0
    5.1153    5.2970    5.6774 C   0  0
    4.5562    5.8731    4.5343 C   0  0
    6.4966    5.6320    6.0771 C   0  0
    6.9799    5.1292    7.0718 O   0  0
    7.2209    6.4951    5.3387 O   0  5
    5.0453    3.6790    7.8630 Cl  0  0
    1.8122    2.0206   -0.0824 C   0  0
    2.3606    0.7851   -0.1834 C   0  0
    1.5266   -0.3157   -0.2416 C   0  0
    0.1851   -0.1272   -0.1958 C   0  0
    0.0660    1.6494   -0.0667 S   0  0
   -0.0825    6.9471   -3.8785 H   0  0
   -1.6789    6.1821   -3.5989 H   0  0
   -0.6038    5.5610   -4.9037 H   0  0
   -0.5793    4.2080   -2.9219 H   0  0
    1.3464    4.3026   -4.3288 H   0  0
    1.9711    5.6426   -3.3075 H   0  0
    2.9602    3.4804   -2.6025 H   0  0
    1.3163    2.7972   -2.3583 H   0  0
    0.5153    5.0537    0.4307 H   0  0
   -0.1075    3.7134   -0.5913 H   0  0
   -1.0968    5.8758   -1.2934 H   0  0
    0.5468    6.5592   -1.5390 H   0  0
    3.5667    3.2387   -0.2368 H   0  0
    2.8793    3.2878    2.1232 H   0  0
    1.2786    3.9679    1.6739 H   0  0
    3.5192    5.6106    0.6913 H   0  0
    1.4902    4.4292    4.6355 H   0  0
    2.4754    3.3856    6.6567 H   0  0
    5.1441    6.5786    3.9288 H   0  0
    3.4529    0.6604   -0.2185 H   0  0
    1.9453   -1.3295   -0.3239 H   0  0
   -0.6210   -0.8749   -0.2294 H   0  0
  1  2  1  0
  2  7  1  0
  2  3  1  0
  3  4  1  0
  4  5  1  0
  5  6  1  0
  5  8  1  0
  6  7  1  0
  8  9  1  0
  8 24  1  0
  9 10  1  0
 10 11  1  0
 11 12  2  0
 11 13  2  0
 11 14  1  0
 14 19  2  0
 14 15  1  0
 15 16  2  0
 16 17  1  0
 17 18  2  0
 17 23  1  0
 18 19  1  0
 18 20  1  0
 20 21  2  0
 20 22  1  0
 24 28  1  0
 24 25  2  0
 25 26  1  0
 26 27  2  0
 27 28  1  0
  1 29  1  0
  1 30  1  0
  1 31  1  0
  2 32  1  0
  3 33  1  0
  3 34  1  0
  4 35  1  0
  4 36  1  0
  6 37  1  0
  6 38  1  0
  7 39  1  0
  7 40  1  0
  8 41  1  0
  9 42  1  0
  9 43  1  0
 10 44  1  0
 15 45  1  0
 16 46  1  0
 19 47  1  0
 25 48  1  0
 26 49  1  0
 27 50  1  0
M  CHG  2   2   1  22  -1
M  END
> <Name>
ZINC22922647

> <reference>
BDB50017122

> <quality>
0.779

> <status>
decoy

$$$$
ZINC24958504
  SciTegic06061311253D

 54 55  0  0  0  0            999 V2000
    6.4607    6.1515   -1.4883 C   0  0
    6.6995    4.8097   -0.8451 C   0  0
    7.9559    4.4889   -0.3650 C   0  0
    8.1811    3.2594    0.2256 C   0  0
    7.1466    2.3446    0.3379 C   0  0
    5.8807    2.6672   -0.1455 C   0  0
    5.6637    3.9007   -0.7421 C   0  0
    4.8306    1.7460   -0.0347 N   0  0
    3.5539    2.1776   -0.0241 C   0  0
    3.3158    3.3669   -0.0093 O   0  0
    2.4221    1.1826   -0.0308 C   0  0
    1.1434    1.8975   -0.0169 N   0  0
   -0.0144    1.2076   -0.0199 C   0  0
    0.0023   -0.0051   -0.0341 O   0  0
   -1.3298    1.9429   -0.0119 C   0  0
   -2.4301    0.9757   -0.0237 N   0  0
   -2.9346    0.5189    1.1509 C   0  0
   -3.9513   -0.3745    1.1655 C   0  0
   -4.4935   -0.8375   -0.0417 C   0  0
   -3.9849   -0.3777   -1.2208 C   0  0
   -2.9331    0.5541   -1.1995 C   0  0
   -2.4724    0.9781   -2.2473 O   0  0
   -4.5933   -0.9547    2.7004 S   0  0
   -4.7636   -2.3589    2.5646 O   0  0
   -3.7882   -0.3801    3.7206 O   0  0
   -6.1083   -0.3087    2.8729 N   0  0
   -7.2753   -1.0310    2.3604 C   0  0
   -6.2816    0.9850    3.5381 C   0  0
    7.3665    1.1351    0.9190 O   0  0
    8.6893    0.8733    1.3917 C   0  0
    5.6358    6.6008   -0.9160 H   0  0
    6.0737    5.9231   -2.4923 H   0  0
    7.3521    6.7954   -1.5174 H   0  0
    8.7784    5.2139   -0.4532 H   0  0
    9.1818    3.0073    0.6065 H   0  0
    4.6675    4.1551   -1.1330 H   0  0
    5.0345    0.7390    0.0386 H   0  0
    2.4847    0.5619   -0.9368 H   0  0
    2.4919    0.5402    0.8594 H   0  0
    1.1292    2.9273   -0.0048 H   0  0
   -1.3976    2.5635    0.8938 H   0  0
   -1.3976    2.5851   -0.9024 H   0  0
   -2.5126    0.8786    2.1009 H   0  0
   -5.3199   -1.5635   -0.0380 H   0  0
   -4.3937   -0.7325   -2.1784 H   0  0
   -7.2242   -2.0164    2.8466 H   0  0
   -7.0510   -1.1962    1.2963 H   0  0
   -8.2402   -0.5273    2.5191 H   0  0
   -5.6365    1.6736    2.9727 H   0  0
   -5.8098    0.8532    4.5230 H   0  0
   -7.3217    1.3362    3.6077 H   0  0
    8.9252    1.6731    2.1091 H   0  0
    9.3562    0.9902    0.5248 H   0  0
    8.7888   -0.1226    1.8480 H   0  0
  1  2  1  0
  2  7  2  0
  2  3  1  0
  3  4  2  0
  4  5  1  0
  5  6  2  0
  5 29  1  0
  6  7  1  0
  6  8  1  0
  8  9  1  0
  9 10  2  0
  9 11  1  0
 11 12  1  0
 12 13  1  0
 13 14  2  0
 13 15  1  0
 15 16  1  0
 16 21  1  0
 16 17  1  0
 17 18  2  0
 18 19  1  0
 18 23  1  0
 19 20  2  0
 20 21  1  0
 21 22  2  0
 23 24  2  0
 23 25  2  0
 23 26  1  0
 26 27  1  0
 26 28  1  0
 29 30  1  0
  1 31  1  0
  1 32  1  0
  1 33  1  0
  3 34  1  0
  4 35  1  0
  7 36  1  0
  8 37  1  0
 11 38  1  0
 11 39  1  0
 12 40  1  0
 15 41  1  0
 15 42  1  0
 17 43  1  0
 19 44  1  0
 20 45  1  0
 27 46  1  0
 27 47  1  0
 27 48  1  0
 28 49  1  0
 28 50  1  0
 28 51  1  0
 30 52  1  0
 30 53  1  0
 30 54  1  0
M  END
> <Name>
ZINC24958504

> <reference>
BDB50017122

> <quality>
0.777

> <status>
decoy

$$$$
ZINC12829082
  SciTegic06061311253D

 49 50  0  0  0  0            999 V2000
   -4.1456    0.5399   -4.4416 C   0  0
   -4.3393    1.5376   -3.3290 C   0  0
   -3.4544    1.7585   -2.2474 C   0  0
   -4.0082    2.7598   -1.4667 C   0  0
   -5.1687    3.1203   -2.0424 N   0  0
   -5.3536    2.3460   -3.1929 N   0  0
   -6.0849    4.1512   -1.5484 C   0  0
   -3.3298    3.4257   -0.0141 Cl  0  0
   -2.1851    1.0620   -2.0022 C   0  0
   -1.0621    1.7715   -1.7540 C   0  0
    0.1631    1.0993   -1.5174 C   0  0
    0.2037   -0.1174   -1.5377 O   0  0
    1.2842    1.8070   -1.2753 N   0  0
    2.5518    1.1124   -1.0366 C   0  0
    3.6580    2.1401   -0.7901 C   0  0
    4.9256    1.4454   -0.5514 N   0  0
    6.0875    2.1789   -0.3006 C   0  0
    6.0704    3.5647   -0.3970 C   0  0
    7.2209    4.2868   -0.1483 C   0  0
    8.3893    3.6319    0.1963 C   0  0
    8.4098    2.2528    0.2932 C   0  0
    7.2611    1.5248    0.0514 C   0  0
    7.2824    0.0490    0.1613 N   0  0
    6.3212   -0.5414    0.6207 O   0  0
    8.2611   -0.5751   -0.2077 O   0  0
    9.8552    4.5571    0.5122 S   0  0
   10.9191    3.6609    0.2222 O   0  0
    9.6947    5.7563   -0.2330 O   0  0
    9.8066    4.9150    2.2899 C   0  0
   -4.2252    1.1629   -5.3447 H   0  0
   -5.0695   -0.0556   -4.3990 H   0  0
   -3.2257   -0.0615   -4.3952 H   0  0
   -5.4343    5.0345   -1.4676 H   0  0
   -6.2818    3.8255   -0.5163 H   0  0
   -6.9949    4.3217   -2.1424 H   0  0
   -2.1484   -0.0372   -2.0206 H   0  0
   -1.0988    2.8707   -1.7356 H   0  0
    1.2498    2.8363   -1.2581 H   0  0
    2.4533    0.4620   -0.1550 H   0  0
    2.8082    0.5025   -1.9154 H   0  0
    3.7573    2.7906   -1.6715 H   0  0
    3.4039    2.7502    0.0892 H   0  0
    4.9600    0.4161   -0.5685 H   0  0
    5.1415    4.0862   -0.6711 H   0  0
    7.2081    5.3841   -0.2244 H   0  0
    9.3419    1.7348    0.5631 H   0  0
    9.8300    3.9940    2.8909 H   0  0
    8.9335    5.5283    2.5575 H   0  0
   10.7077    5.4953    2.5374 H   0  0
  1  2  1  0
  2  6  2  0
  2  3  1  0
  3  4  2  0
  3  9  1  0
  4  5  1  0
  4  8  1  0
  5  6  1  0
  5  7  1  0
  9 10  2  0
 10 11  1  0
 11 12  2  0
 11 13  1  0
 13 14  1  0
 14 15  1  0
 15 16  1  0
 16 17  1  0
 17 22  2  0
 17 18  1  0
 18 19  2  0
 19 20  1  0
 20 21  2  0
 20 26  1  0
 21 22  1  0
 22 23  1  0
 23 24  2  0
 23 25  2  0
 26 27  2  0
 26 28  2  0
 26 29  1  0
  1 30  1  0
  1 31  1  0
  1 32  1  0
  7 33  1  0
  7 34  1  0
  7 35  1  0
  9 36  1  0
 10 37  1  0
 13 38  1  0
 14 39  1  0
 14 40  1  0
 15 41  1  0
 15 42  1  0
 16 43  1  0
 18 44  1  0
 19 45  1  0
 21 46  1  0
 29 47  1  0
 29 48  1  0
 29 49  1  0
M  END
> <Name>
ZINC12829082

> <reference>
BDB50017122

> <quality>
0.774

> <status>
decoy

$$$$
ZINC22728508
  SciTegic06061311253D

 49 51  0  0  0  0            999 V2000
   -8.0679   10.5979    6.0423 C   0  0
   -6.7167   10.0095    5.7274 C   0  0
   -6.4424    8.6954    6.0632 C   0  0
   -5.2097    8.1489    5.7721 C   0  0
   -4.2338    8.9284    5.1493 C   0  0
   -4.5166   10.2528    4.8138 C   0  0
   -5.7558   10.7855    5.1044 C   0  0
   -6.0575   12.1904    4.7493 N   0  0
   -5.2001   12.8862    4.2352 O   0  0
   -7.1632   12.6507    4.9710 O   0  0
   -2.9068    8.3507    4.8406 C   0  0
   -2.0522    9.0373    4.3064 O   0  0
   -2.6307    7.0071    5.1639 C   0  0
   -2.4800    6.0634    4.1500 C   0  0
   -2.0695    4.7923    4.4530 N   0  0
   -1.7838    3.8868    3.4271 C   0  0
   -2.1717    2.5575    3.5443 C   0  0
   -1.8886    1.6629    2.5309 C   0  0
   -1.2196    2.0867    1.3981 C   0  0
   -0.8302    3.4130    1.2753 C   0  0
   -1.1074    4.3129    2.2925 C   0  0
   -0.1726    3.8281    0.1608 O   0  0
    0.0847    2.8456   -0.8444 C   0  0
   -2.8178    6.5051    2.4780 S   0  5
   -2.5098    6.6272    6.4812 N   0  3
   -1.5245    7.1316    7.2125 C   0  0
   -1.3721    6.7739    8.5363 C   0  0
   -2.2633    5.8753    9.1037 C   0  0
   -3.2867    5.3635    8.3106 C   0  0
   -3.3841    5.7700    6.9901 C   0  0
   -4.1814    4.4801    8.8268 O   0  5
   -8.4566   10.9564    5.0777 H   0  0
   -7.8581   11.4845    6.6586 H   0  0
   -8.7541    9.8948    6.5370 H   0  0
   -7.2090    8.0853    6.5633 H   0  0
   -4.9964    7.1011    6.0303 H   0  0
   -3.7533   10.8710    4.3187 H   0  0
   -1.9713    4.5036    5.4368 H   0  0
   -2.7045    2.2177    4.4447 H   0  0
   -2.1962    0.6110    2.6255 H   0  0
   -0.9955    1.3717    0.5928 H   0  0
   -0.7919    5.3627    2.2007 H   0  0
   -0.8935    2.4309   -1.1291 H   0  0
    0.6607    2.0462   -0.3553 H   0  0
    0.6191    3.2562   -1.7138 H   0  0
   -0.8203    7.8439    6.7578 H   0  0
   -0.5523    7.1970    9.1355 H   0  0
   -2.1637    5.5737   10.1569 H   0  0
   -4.1943    5.3781    6.3577 H   0  0
  1  2  1  0
  2  7  2  0
  2  3  1  0
  3  4  2  0
  4  5  1  0
  5  6  2  0
  5 11  1  0
  6  7  1  0
  7  8  1  0
  8  9  2  0
  8 10  2  0
 11 12  2  0
 11 13  1  0
 13 14  2  0
 13 25  1  0
 14 15  1  0
 14 24  1  0
 15 16  1  0
 16 21  2  0
 16 17  1  0
 17 18  2  0
 18 19  1  0
 19 20  2  0
 20 21  1  0
 20 22  1  0
 22 23  1  0
 25 30  2  0
 25 26  1  0
 26 27  2  0
 27 28  1  0
 28 29  2  0
 29 30  1  0
 29 31  1  0
  1 32  1  0
  1 33  1  0
  1 34  1  0
  3 35  1  0
  4 36  1  0
  6 37  1  0
 15 38  1  0
 17 39  1  0
 18 40  1  0
 19 41  1  0
 21 42  1  0
 23 43  1  0
 23 44  1  0
 23 45  1  0
 26 46  1  0
 27 47  1  0
 28 48  1  0
 30 49  1  0
M  CHG  3  24  -1  25   1  31  -1
M  END
> <Name>
ZINC22728508

> <reference>
BDB50017122

> <quality>
0.755

> <status>
decoy

$$$$
ZINC26282752
  SciTegic06061311253D

 54 55  0  0  1  0            999 V2000
  -14.2395    7.5218    2.8409 C   0  0
  -13.6936    8.7528    2.1146 C   0  0
  -12.7877    8.3068    0.9651 C   0  0
  -12.2418    9.5378    0.2388 C   0  0
  -11.3744    9.1107   -0.8618 N   0  0
  -10.0520    8.8908   -0.7786 C   0  0
   -9.6174    8.5080   -2.0351 C   0  0
  -10.7499    8.4983   -2.8817 C   0  0
  -11.7853    8.8572   -2.1751 N   0  0
  -10.7585    8.1371   -4.3448 C   0  0
   -8.2374    8.1687   -2.4171 C   0  0
   -7.4892    9.0354   -2.8249 O   0  0
   -7.8032    6.8970   -2.3147 O   0  0
   -6.4305    6.6353   -2.7091 C   0  0  2  0  0  0
   -6.3856    6.2854   -4.1979 C   0  0
   -5.8881    5.4818   -1.9054 C   0  0
   -6.6151    4.8761   -1.1474 O   0  0
   -4.5948    5.1233   -2.0292 N   0  0
   -4.1097    4.0916   -1.3103 C   0  0
   -4.8385    3.4845   -0.5505 O   0  0
   -2.8164    3.7332   -1.4341 N   0  0
   -2.2890    2.6117   -0.6528 C   0  0  2  0  0  0
   -1.8757    3.1121    0.7412 C   0  0
   -1.0391    1.9946    1.4299 C   0  0
   -0.0172    1.4168    0.0098 S   0  0
    0.0021   -0.0041    0.0020 O   0  0
    1.2102    2.1328    0.0020 O   0  0
   -1.0641    2.0086   -1.3817 C   0  0
   -9.0690    9.0594    0.6423 Cl  0  0
  -13.4031    6.9307    3.2423 H   0  0
  -14.8182    6.9060    2.1367 H   0  0
  -14.8909    7.8418    3.6675 H   0  0
  -14.5306    9.3431    1.7133 H   0  0
  -13.1149    9.3687    2.8187 H   0  0
  -11.9502    7.7168    1.3658 H   0  0
  -13.3651    7.6916    0.2593 H   0  0
  -11.6631   10.1537    0.9429 H   0  0
  -13.0788   10.1281   -0.1625 H   0  0
  -10.2958    7.1391   -4.3447 H   0  0
   -9.9994    8.8161   -4.7604 H   0  0
  -11.7303    8.1816   -4.8583 H   0  0
   -5.8188    7.5306   -2.5242 H   0  0
   -6.7811    7.1270   -4.7855 H   0  0
   -6.9968    5.3899   -4.3838 H   0  0
   -5.3459    6.0870   -4.4974 H   0  0
   -3.9771    5.6378   -2.6732 H   0  0
   -2.1988    4.2478   -2.0780 H   0  0
   -3.0625    1.8371   -0.5449 H   0  0
   -2.7734    3.3234    1.3407 H   0  0
   -1.2655    4.0219    0.6418 H   0  0
   -0.3906    2.4169    2.2116 H   0  0
   -1.6882    1.1790    1.7813 H   0  0
   -1.3683    1.1575   -2.0086 H   0  0
   -0.5290    2.7856   -1.9474 H   0  0
  1  2  1  0
  2  3  1  0
  3  4  1  0
  4  5  1  0
  5  9  1  0
  5  6  1  0
  6  7  2  0
  6 29  1  0
  7  8  1  0
  7 11  1  0
  8  9  2  0
  8 10  1  0
 11 12  2  0
 11 13  1  0
 13 14  1  0
 14 15  1  0
 14 16  1  0
 16 17  2  0
 16 18  1  0
 18 19  1  0
 19 20  2  0
 19 21  1  0
 21 22  1  0
 22 28  1  0
 22 23  1  0
 23 24  1  0
 24 25  1  0
 25 26  2  0
 25 27  2  0
 25 28  1  0
  1 30  1  0
  1 31  1  0
  1 32  1  0
  2 33  1  0
  2 34  1  0
  3 35  1  0
  3 36  1  0
  4 37  1  0
  4 38  1  0
 10 39  1  0
 10 40  1  0
 10 41  1  0
 14 42  1  0
 15 43  1  0
 15 44  1  0
 15 45  1  0
 18 46  1  0
 21 47  1  0
 22 48  1  0
 23 49  1  0
 23 50  1  0
 24 51  1  0
 24 52  1  0
 28 53  1  0
 28 54  1  0
M  END
> <Name>
ZINC26282752

> <reference>
BDB50017122

> <quality>
0.740

> <status>
decoy

$$$$
ZINC29684764
  SciTegic06061311253D

 42 42  0  0  1  0            999 V2000
    0.5987   -4.4509    3.6033 C   0  0
    0.4801   -5.3766    2.4741 N   0  0
    1.3681   -6.4738    2.3617 O   0  0
    2.5573   -6.1857    1.6236 C   0  0
   -0.6926   -5.1399    1.3291 S   0  0
   -1.6646   -4.2842    1.9141 O   0  0
   -1.0194   -6.4222    0.8113 O   0  0
    0.0440   -4.2361    0.0080 C   0  0
    0.6434   -4.9119   -1.0407 C   0  0
    1.2236   -4.2109   -2.0819 C   0  0
    1.2084   -2.8298   -2.0815 C   0  0
    0.6051   -2.1422   -1.0261 C   0  0
    0.0262   -2.8572    0.0241 C   0  0
    0.5851   -0.6645   -1.0180 C   0  0
    1.0944   -0.0447   -1.9313 O   0  0
    0.0021   -0.0041    0.0020 N   0  0
   -0.0178    1.4608    0.0101 C   0  0
   -0.7339    1.9542    1.2689 C   0  0
   -0.7538    3.4190    1.2769 N   0  0
   -1.7693    4.2277    2.3051 S   0  0
   -1.5444    5.6034    2.0293 O   0  0
   -3.0465    3.6444    2.0864 O   0  0
   -1.1718    3.8181    3.9682 C   0  0
    2.0017   -1.8725   -3.5063 Br  0  0
    1.6346   -4.0833    3.5613 H   0  0
    0.5169   -5.0840    4.4991 H   0  0
   -0.1386   -3.6346    3.5956 H   0  0
    3.0660   -5.3503    2.1269 H   0  0
    2.2528   -5.8541    0.6200 H   0  0
    3.2167   -7.0640    1.5614 H   0  0
    0.6583   -6.0118   -1.0459 H   0  0
    1.6982   -4.7543   -2.9122 H   0  0
   -0.4431   -2.3218    0.8626 H   0  0
   -0.4295   -0.5293    0.7758 H   0  0
    1.0141    1.8417    0.0028 H   0  0
   -0.5499    1.8263   -0.8806 H   0  0
   -0.2025    1.5906    2.1607 H   0  0
   -1.7661    1.5740    1.2766 H   0  0
   -0.1362    3.9459    0.6430 H   0  0
   -0.1427    4.1723    4.1277 H   0  0
   -1.2418    2.7389    4.1695 H   0  0
   -1.8178    4.3346    4.6935 H   0  0
  1  2  1  0
  2  3  1  0
  2  5  1  0
  3  4  1  0
  5  6  2  0
  5  7  2  0
  5  8  1  0
  8 13  2  0
  8  9  1  0
  9 10  2  0
 10 11  1  0
 11 12  2  0
 11 24  1  0
 12 13  1  0
 12 14  1  0
 14 15  2  0
 14 16  1  0
 16 17  1  0
 17 18  1  0
 18 19  1  0
 19 20  1  0
 20 21  2  0
 20 22  2  0
 20 23  1  0
  1 25  1  0
  1 26  1  0
  1 27  1  0
  4 28  1  0
  4 29  1  0
  4 30  1  0
  9 31  1  0
 10 32  1  0
 13 33  1  0
 16 34  1  0
 17 35  1  0
 17 36  1  0
 18 37  1  0
 18 38  1  0
 19 39  1  0
 23 40  1  0
 23 41  1  0
 23 42  1  0
M  END
> <Name>
ZINC29684764

> <reference>
BDB50017122

> <quality>
0.738

> <status>
decoy

$$$$
ZINC25941995
  SciTegic06061311253D

 59 62  0  0  0  0            999 V2000
   -1.4767   -6.4411   -8.4815 C   0  0
   -0.0439   -6.9077   -8.4604 C   0  0
    0.7041   -7.3776   -9.5612 C   0  0
    1.9647   -7.7017   -9.0905 C   0  0
    2.0106   -7.4470   -7.7746 N   0  0
    0.7887   -6.9548   -7.3632 C   0  0
    0.4482   -6.5712   -6.0439 C   0  0
   -0.6648   -6.1506   -5.8021 O   0  0
    1.4671   -6.6850   -4.9394 C   0  0
    0.8729   -6.2282   -3.6760 N   0  0
    1.7480   -6.5430   -2.5382 C   0  0
    1.0594   -6.1240   -1.2371 C   0  0
    0.7600   -4.6861   -1.2855 N   0  0
   -0.1152   -4.3713   -2.4233 C   0  0
    0.5734   -4.7903   -3.7243 C   0  0
    0.1657   -4.2294   -0.0221 C   0  0
    0.0995   -2.7238   -0.0134 C   0  0
   -1.1262   -2.0871    0.0017 C   0  0
   -1.1621   -0.6880    0.0095 C   0  0
   -2.2294   -0.0952    0.0224 O   0  0
    0.0021   -0.0041    0.0020 N   0  0
   -0.0164    1.3576    0.0095 C   0  0
    1.1361    2.0644    0.0023 C   0  0
    2.3701    1.3993   -0.0136 C   0  0
    2.3994    0.0368   -0.0203 C   0  0
    1.1896   -0.6812   -0.0125 C   0  0
    1.2161   -2.0127   -0.0199 N   0  0
    3.0975   -8.2506   -9.9190 C   0  0
    0.2300   -7.5051  -10.9497 C   0  0
   -0.2924   -8.5376  -11.3211 O   0  0
    0.3755   -6.4768  -11.8085 O   0  0
   -0.1149   -6.6731  -13.1610 C   0  0
   -1.4016   -5.4350   -8.0431 H   0  0
   -1.9388   -7.0692   -7.7057 H   0  0
   -1.9926   -6.4721   -9.4525 H   0  0
    2.8288   -7.5954   -7.1668 H   0  0
    1.7821   -7.7340   -4.8377 H   0  0
    2.3409   -6.0614   -5.1794 H   0  0
    1.9463   -7.6248   -2.5159 H   0  0
    2.6975   -5.9974   -2.6421 H   0  0
    1.7242   -6.3312   -0.3856 H   0  0
    0.1233   -6.6894   -1.1187 H   0  0
   -0.3143   -3.2897   -2.4463 H   0  0
   -1.0642   -4.9176   -2.3187 H   0  0
   -0.0923   -4.5814   -4.5747 H   0  0
    1.5091   -4.2242   -3.8423 H   0  0
   -0.8497   -4.6411    0.0756 H   0  0
    0.7835   -4.5734    0.8205 H   0  0
   -2.0589   -2.6702    0.0075 H   0  0
   -0.9798    1.8884    0.0216 H   0  0
    1.1055    3.1640    0.0089 H   0  0
    3.3084    1.9733   -0.0206 H   0  0
    3.3611   -0.4971   -0.0317 H   0  0
    3.1922   -7.5048  -10.7220 H   0  0
    2.6465   -9.1388  -10.3855 H   0  0
    4.0377   -8.4548   -9.3858 H   0  0
   -1.1817   -6.9257  -13.0702 H   0  0
    0.4092   -7.5561  -13.5555 H   0  0
    0.0397   -5.7912  -13.8000 H   0  0
  1  2  1  0
  2  6  2  0
  2  3  1  0
  3  4  2  0
  3 29  1  0
  4  5  1  0
  4 28  1  0
  5  6  1  0
  6  7  1  0
  7  8  2  0
  7  9  1  0
  9 10  1  0
 10 15  1  0
 10 11  1  0
 11 12  1  0
 12 13  1  0
 13 14  1  0
 13 16  1  0
 14 15  1  0
 16 17  1  0
 17 27  1  0
 17 18  2  0
 18 19  1  0
 19 20  2  0
 19 21  1  0
 21 26  1  0
 21 22  1  0
 22 23  2  0
 23 24  1  0
 24 25  2  0
 25 26  1  0
 26 27  2  0
 29 30  2  0
 29 31  1  0
 31 32  1  0
  1 33  1  0
  1 34  1  0
  1 35  1  0
  5 36  1  0
  9 37  1  0
  9 38  1  0
 11 39  1  0
 11 40  1  0
 12 41  1  0
 12 42  1  0
 14 43  1  0
 14 44  1  0
 15 45  1  0
 15 46  1  0
 16 47  1  0
 16 48  1  0
 18 49  1  0
 22 50  1  0
 23 51  1  0
 24 52  1  0
 25 53  1  0
 28 54  1  0
 28 55  1  0
 28 56  1  0
 32 57  1  0
 32 58  1  0
 32 59  1  0
M  END
> <Name>
ZINC25941995

> <reference>
BDB50017122

> <quality>
0.738

> <status>
decoy

$$$$
ZINC21027982
  SciTegic06061311253D

 62 65  0  0  1  0            999 V2000
    9.1170    8.7249    8.6420 C   0  0
    9.2282    7.4199    7.8446 C   0  0
    8.3155    6.3744    8.4867 C   0  0
    6.9749    6.9145    8.6754 N   0  0
    6.6867    8.2165    8.6770 C   0  0
    5.5382    8.5499    8.8796 O   0  0
    7.7087    9.2923    8.4474 C   0  0
    5.9285    6.0140    8.8601 C   0  0
    5.9563    4.6966    8.8926 N   0  0
    4.7915    3.9914    9.0891 N   0  0
    3.6515    4.6377    9.2442 C   0  0
    4.1889    6.3357    9.1072 S   0  0
    2.3745    4.1326    9.4521 N   0  0
    1.7827    4.6861   10.6768 C   0  0
    0.4420    4.0013   10.9516 C   0  0
   -0.4949    4.2283    9.7620 C   0  0
    0.1658    3.6865    8.4914 C   0  0  2  0  0  0
    1.5145    4.3804    8.2879 C   0  0
   -0.7241    3.9590    7.3061 C   0  0
   -1.7827    4.5302    7.4612 O   0  0
   -0.3436    3.5679    6.0737 N   0  0
   -1.2087    3.8328    4.9215 C   0  0
   -0.5479    3.2911    3.6523 C   0  0
   -1.4514    3.5678    2.4490 C   0  0
   -0.8168    3.0477    1.2304 N   0  0
   -0.7311    1.5804    1.2663 C   0  0
   -0.0127    1.0858    0.0080 C   0  0
   -0.7060    1.5604   -1.1493 O   0  0
   -0.8066    2.9854   -1.2162 C   0  0
   -1.5340    3.4993    0.0291 C   0  0
    9.8603    9.4469    8.2730 H   0  0
    9.2898    8.5206    9.7090 H   0  0
   10.2682    7.0621    7.8642 H   0  0
    8.9133    7.5949    6.8053 H   0  0
    8.2621    5.4887    7.8366 H   0  0
    8.7285    6.0787    9.4624 H   0  0
    7.5427   10.1118    9.1621 H   0  0
    7.6075    9.6787    7.4225 H   0  0
    2.4628    4.5123   11.5237 H   0  0
    1.6224    5.7671   10.5516 H   0  0
   -0.0095    4.4268   11.8600 H   0  0
    0.6026    2.9221   11.0910 H   0  0
   -1.4441    3.7003    9.9357 H   0  0
   -0.6874    5.3050    9.6447 H   0  0
    0.3202    2.6019    8.5898 H   0  0
    1.9974    3.9831    7.3829 H   0  0
    1.3556    5.4628    8.1732 H   0  0
    0.5554    3.0828    5.9420 H   0  0
   -2.1791    3.3363    5.0695 H   0  0
   -1.3634    4.9171    4.8193 H   0  0
    0.4224    3.7875    3.5034 H   0  0
   -0.3935    2.2066    3.7522 H   0  0
   -2.4217    3.0713    2.5970 H   0  0
   -1.6061    4.6521    2.3468 H   0  0
   -0.1674    1.2670    2.1574 H   0  0
   -1.7440    1.1530    1.3018 H   0  0
    0.0022   -0.0141    0.0009 H   0  0
    1.0188    1.4680   -0.0001 H   0  0
   -1.3714    3.2731   -2.1152 H   0  0
    0.2016    3.4233   -1.2587 H   0  0
   -1.5630    4.5987    0.0089 H   0  0
   -2.5603    3.1038    0.0435 H   0  0
  1  7  1  0
  1  2  1  0
  2  3  1  0
  3  4  1  0
  4  5  1  0
  4  8  1  0
  5  6  2  0
  5  7  1  0
  8 12  1  0
  8  9  2  0
  9 10  1  0
 10 11  2  0
 11 12  1  0
 11 13  1  0
 13 18  1  0
 13 14  1  0
 14 15  1  0
 15 16  1  0
 16 17  1  0
 17 18  1  0
 17 19  1  0
 19 20  2  0
 19 21  1  0
 21 22  1  0
 22 23  1  0
 23 24  1  0
 24 25  1  0
 25 30  1  0
 25 26  1  0
 26 27  1  0
 27 28  1  0
 28 29  1  0
 29 30  1  0
  1 31  1  0
  1 32  1  0
  2 33  1  0
  2 34  1  0
  3 35  1  0
  3 36  1  0
  7 37  1  0
  7 38  1  0
 14 39  1  0
 14 40  1  0
 15 41  1  0
 15 42  1  0
 16 43  1  0
 16 44  1  0
 17 45  1  0
 18 46  1  0
 18 47  1  0
 21 48  1  0
 22 49  1  0
 22 50  1  0
 23 51  1  0
 23 52  1  0
 24 53  1  0
 24 54  1  0
 26 55  1  0
 26 56  1  0
 27 57  1  0
 27 58  1  0
 29 59  1  0
 29 60  1  0
 30 61  1  0
 30 62  1  0
M  END
> <Name>
ZINC21027982

> <reference>
BDB50017122

> <quality>
0.737

> <status>
decoy

$$$$
ZINC26343880
  SciTegic06061311253D

 57 60  0  0  0  0            999 V2000
    2.5226   11.4130    2.7593 C   0  0
    2.1106   10.0081    2.7053 N   0  0
    0.8318    9.5553    2.5721 C   0  0
    0.9029    8.1484    2.5658 C   0  0
    2.2650    7.8027    2.6998 C   0  0
    2.9631    8.8994    2.7806 N   0  0
   -0.2958    7.4205    2.4385 C   0  0
   -1.4349    8.0948    2.3254 N   0  0
   -1.4526    9.4159    2.3418 C   0  0
   -0.3602   10.1386    2.4582 N   0  0
   -0.2869    6.0395    2.4258 N   0  0
   -1.6486    5.5054    2.2840 C   0  0
   -1.6041    3.9771    2.3541 C   0  0
   -0.7276    3.4659    1.2911 N   0  3
    0.6341    4.0000    1.4328 C   0  0
    0.5896    5.5283    1.3627 C   0  0
   -0.7182    1.9970    1.2775 C   0  0
   -0.0041    1.5032    0.0177 C   0  0
    0.0056   -0.0037    0.0038 C   0  0
   -0.5081   -0.6219    0.9122 O   0  0
    0.5851   -0.6645   -1.0180 N   0  0
    0.6973   -2.0606   -0.9757 C   0  0
    0.7102   -2.7206    0.2444 C   0  0
    0.8156   -4.0980    0.2834 C   0  0
    0.9193   -4.8205   -0.8910 C   0  0
    0.9124   -4.1692   -2.1105 C   0  0
    0.8018   -2.7890   -2.1584 C   0  0
    0.7949   -2.1470   -3.3570 O   0  0
    0.9058   -2.9584   -4.5282 C   0  0
    0.8240   -4.8012    1.5859 N   0  0
    0.9223   -6.0147    1.6223 O   0  0
    0.7327   -4.1663    2.6214 O   0  0
    3.2690   11.4724    1.9535 H   0  0
    3.0943   11.4566    3.6980 H   0  0
    1.7246   12.1666    2.6862 H   0  0
    2.6687    6.7799    2.7308 H   0  0
   -2.4201    9.9320    2.2546 H   0  0
   -2.2808    5.8912    3.0973 H   0  0
   -2.0665    5.8155    1.3149 H   0  0
   -2.6181    3.5728    2.2187 H   0  0
   -1.2121    3.6659    3.3336 H   0  0
   -1.1028    3.7877    0.3875 H   0  0
    1.2671    3.6145    0.6200 H   0  0
    1.0511    3.6897    2.4022 H   0  0
    1.6045    5.9307    1.4971 H   0  0
    0.1978    5.8389    0.3829 H   0  0
   -0.1894    1.6253    2.1676 H   0  0
   -1.7525    1.6225    1.2824 H   0  0
    1.0308    1.8759    0.0116 H   0  0
   -0.5327    1.8742   -0.8728 H   0  0
    0.9455   -0.1433   -1.8300 H   0  0
    0.6366   -2.1477    1.1806 H   0  0
    1.0075   -5.9164   -0.8549 H   0  0
    0.9947   -4.7469   -3.0429 H   0  0
    0.0700   -3.6725   -4.4900 H   0  0
    1.8411   -3.5277   -4.4226 H   0  0
    0.8929   -2.3690   -5.4569 H   0  0
  1  2  1  0
  2  6  1  0
  2  3  1  0
  3 10  2  0
  3  4  1  0
  4  5  1  0
  4  7  2  0
  5  6  2  0
  7  8  1  0
  7 11  1  0
  8  9  2  0
  9 10  1  0
 11 16  1  0
 11 12  1  0
 12 13  1  0
 13 14  1  0
 14 15  1  0
 14 17  1  0
 15 16  1  0
 17 18  1  0
 18 19  1  0
 19 20  2  0
 19 21  1  0
 21 22  1  0
 22 27  2  0
 22 23  1  0
 23 24  2  0
 24 25  1  0
 24 30  1  0
 25 26  2  0
 26 27  1  0
 27 28  1  0
 28 29  1  0
 30 31  2  0
 30 32  2  0
  1 33  1  0
  1 34  1  0
  1 35  1  0
  5 36  1  0
  9 37  1  0
 12 38  1  0
 12 39  1  0
 13 40  1  0
 13 41  1  0
 14 42  1  0
 15 43  1  0
 15 44  1  0
 16 45  1  0
 16 46  1  0
 17 47  1  0
 17 48  1  0
 18 49  1  0
 18 50  1  0
 21 51  1  0
 23 52  1  0
 25 53  1  0
 26 54  1  0
 29 55  1  0
 29 56  1  0
 29 57  1  0
M  CHG  1  14   1
M  END
> <Name>
ZINC26343880

> <reference>
BDB50017122

> <quality>
0.730

> <status>
decoy

$$$$
ZINC20091737
  SciTegic06061311253D

 58 61  0  0  1  0            999 V2000
   -0.5827    3.2405   -0.9688 C   0  0
   -0.5656    1.7189   -1.1280 C   0  0  2  0  0  0
   -0.0259    1.0783    0.1523 C   0  0
   -0.0842   -0.3845    0.0301 N   0  3
    0.7437   -1.0319    1.0564 C   0  0
   -1.4715   -0.8632    0.0937 C   0  0
    0.3336    1.3395   -2.3063 C   0  0
   -0.3862    1.9750   -3.8454 S   0  0
    0.7502    1.4629   -5.0908 C   0  0
    1.8742    0.7629   -4.8789 N   0  0
    2.4796    0.5560   -6.0164 C   0  0
    1.7388    1.1257   -6.9985 N   0  0
    0.6299    1.7007   -6.3793 N   0  0
    2.1079    1.0849   -8.4079 C   0  0  1  0  0  0
    3.5474    0.6425   -8.5536 C   0  0
    4.2346    0.0877   -7.5325 C   0  0
    3.6659   -0.1026   -6.2958 N   0  0
    5.6714   -0.3442   -7.7074 C   0  0
    5.9070   -0.7761   -9.1560 C   0  0
    5.5675    0.4045  -10.0723 C   0  0
    4.1505    0.8327   -9.8102 C   0  0
    3.5121    1.3539  -10.7033 O   0  0
    1.2108    0.1144   -9.1319 C   0  0
    1.1896   -1.2167   -8.7547 C   0  0
    0.3671   -2.1095   -9.4100 C   0  0
   -0.4372   -1.6693  -10.4631 C   0  0
   -0.4069   -0.3258  -10.8419 C   0  0
    0.4163    0.5573  -10.1745 C   0  0
   -1.3167   -2.6207  -11.1728 C   0  0
   -2.0156   -2.2347  -12.0883 O   0  0
   -1.3435   -3.9163  -10.8048 O   0  5
    0.4391    3.6021   -0.7813 H   0  0
   -1.2291    3.5144   -0.1220 H   0  0
   -0.9706    3.7018   -1.8890 H   0  0
   -1.5877    1.3583   -1.3158 H   0  0
   -0.6365    1.3985    1.0094 H   0  0
    1.0171    1.3915    0.3077 H   0  0
    0.2970   -0.6405   -0.8919 H   0  0
    0.3782   -0.7315    2.0495 H   0  0
    1.7841   -0.6947    0.9386 H   0  0
    0.6905   -2.1257    0.9528 H   0  0
   -2.0441   -0.4032   -0.7251 H   0  0
   -1.9093   -0.5573    1.0553 H   0  0
   -1.4997   -1.9589    0.0010 H   0  0
    1.3324    1.7770   -2.1613 H   0  0
    0.4181    0.2444   -2.3668 H   0  0
    1.9941    2.0902   -8.8397 H   0  0
    4.1086   -0.7167   -5.5974 H   0  0
    5.8857   -1.1880   -7.0351 H   0  0
    6.3386    0.4956   -7.4631 H   0  0
    6.9621   -1.0564   -9.2911 H   0  0
    5.2571   -1.6298   -9.3985 H   0  0
    5.6699    0.0972  -11.1235 H   0  0
    6.2494    1.2417   -9.8620 H   0  0
    1.8300   -1.5638   -7.9305 H   0  0
    0.3449   -3.1657   -9.1036 H   0  0
   -1.0380    0.0277  -11.6706 H   0  0
    0.4411    1.6160  -10.4719 H   0  0
  1  2  1  0
  2  3  1  0
  2  7  1  0
  3  4  1  0
  4  5  1  0
  4  6  1  0
  7  8  1  0
  8  9  1  0
  9 13  2  0
  9 10  1  0
 10 11  2  0
 11 17  1  0
 11 12  1  0
 12 13  1  0
 12 14  1  0
 14 15  1  0
 14 23  1  0
 15 21  1  0
 15 16  2  0
 16 17  1  0
 16 18  1  0
 18 19  1  0
 19 20  1  0
 20 21  1  0
 21 22  2  0
 23 28  2  0
 23 24  1  0
 24 25  2  0
 25 26  1  0
 26 27  2  0
 26 29  1  0
 27 28  1  0
 29 30  2  0
 29 31  1  0
  1 32  1  0
  1 33  1  0
  1 34  1  0
  2 35  1  0
  3 36  1  0
  3 37  1  0
  4 38  1  0
  5 39  1  0
  5 40  1  0
  5 41  1  0
  6 42  1  0
  6 43  1  0
  6 44  1  0
  7 45  1  0
  7 46  1  0
 14 47  1  0
 17 48  1  0
 18 49  1  0
 18 50  1  0
 19 51  1  0
 19 52  1  0
 20 53  1  0
 20 54  1  0
 24 55  1  0
 25 56  1  0
 27 57  1  0
 28 58  1  0
M  CHG  2   4   1  31  -1
M  END
> <Name>
ZINC20091737

> <reference>
BDB50017122

> <quality>
0.722

> <status>
decoy

$$$$
ZINC29171609
  SciTegic06061311253D

 50 52  0  0  0  0            999 V2000
    6.0261   -4.6800   -1.4929 C   0  0
    4.8346   -3.8973   -1.3945 O   0  0
    5.0706   -2.5026   -1.1910 C   0  0
    3.7523   -1.7778   -1.1023 C   0  0
    2.7130   -2.3948   -1.2035 O   0  0
    3.7282   -0.4440   -0.9106 N   0  0
    2.5055    0.2162   -0.7330 C   0  0
    1.4586   -0.4244   -0.0832 C   0  0
    0.2539    0.2262    0.0923 C   0  0
    0.0887    1.5215   -0.3811 C   0  0
    1.1358    2.1620   -1.0310 C   0  0
    2.3405    1.5112   -1.2064 C   0  0
   -1.1349    2.1792   -0.2083 N   0  0
   -1.1618    3.5130   -0.0163 C   0  0
   -0.1202    4.1337    0.0897 O   0  0
   -2.4453    4.2159    0.0648 C   0  0
   -2.6912    5.5749    0.1843 C   0  0
   -4.0047    5.9702    0.2360 C   0  0
   -4.9834    5.0293    0.1796 C   0  0
   -4.0982    3.5449    0.0432 S   0  0
   -1.3753    6.7441    0.2616 S   0  0
   -0.5055    6.3087    1.2975 O   0  0
   -0.9304    6.9437   -1.0731 O   0  0
   -2.0265    8.1816    0.7635 N   0  0
   -2.5590    9.1516   -0.2065 C   0  0
   -3.9721    9.5542    0.2450 C   0  0
   -3.9248    9.9813    1.6085 O   0  0
   -3.5155    8.9646    2.5264 C   0  0
   -2.0841    8.5294    2.1921 C   0  0
    6.5962   -4.5344   -0.5635 H   0  0
    6.6173   -4.2802   -2.3300 H   0  0
    5.7985   -5.7448   -1.6488 H   0  0
    5.6528   -2.1013   -2.0336 H   0  0
    5.6315   -2.3581   -0.2559 H   0  0
    4.6088    0.0900   -0.8947 H   0  0
    1.5894   -1.4503    0.2916 H   0  0
   -0.5753   -0.2812    0.6071 H   0  0
    1.0051    3.1878   -1.4059 H   0  0
    3.1698    2.0184   -1.7212 H   0  0
   -2.0146    1.6439   -0.2279 H   0  0
   -4.2620    7.0362    0.3221 H   0  0
   -6.0733    5.1743    0.2125 H   0  0
   -2.6079    8.6905   -1.2040 H   0  0
   -1.9127   10.0413   -0.2334 H   0  0
   -4.3385   10.3780   -0.3852 H   0  0
   -4.6479    8.6910    0.1542 H   0  0
   -3.5482    9.3606    3.5521 H   0  0
   -4.1903    8.0998    2.4434 H   0  0
   -1.8149    7.6513    2.7975 H   0  0
   -1.3894    9.3564    2.4006 H   0  0
  1  2  1  0
  2  3  1  0
  3  4  1  0
  4  5  2  0
  4  6  1  0
  6  7  1  0
  7 12  2  0
  7  8  1  0
  8  9  2  0
  9 10  1  0
 10 11  2  0
 10 13  1  0
 11 12  1  0
 13 14  1  0
 14 15  2  0
 14 16  1  0
 16 20  1  0
 16 17  2  0
 17 18  1  0
 17 21  1  0
 18 19  2  0
 19 20  1  0
 21 22  2  0
 21 23  2  0
 21 24  1  0
 24 29  1  0
 24 25  1  0
 25 26  1  0
 26 27  1  0
 27 28  1  0
 28 29  1  0
  1 30  1  0
  1 31  1  0
  1 32  1  0
  3 33  1  0
  3 34  1  0
  6 35  1  0
  8 36  1  0
  9 37  1  0
 11 38  1  0
 12 39  1  0
 13 40  1  0
 18 41  1  0
 19 42  1  0
 25 43  1  0
 25 44  1  0
 26 45  1  0
 26 46  1  0
 28 47  1  0
 28 48  1  0
 29 49  1  0
 29 50  1  0
M  END
> <Name>
ZINC29171609

> <reference>
BDB50017122

> <quality>
0.721

> <status>
decoy

$$$$
ZINC27124866
  SciTegic06061311253D

 68 71  0  0  0  0            999 V2000
   11.5427   -3.3431    5.8588 C   0  0
   10.0542   -3.5832    6.1193 C   0  0
    9.2694   -3.3691    4.8226 C   0  0
    9.4915   -1.9470    4.3196 C   0  0  1  0  0  0
   10.9741   -1.6846    4.0789 C   0  0
   11.7519   -1.9054    5.3788 C   0  0
    8.7019   -1.7071    3.0532 C   0  0
    8.8161   -2.2889    1.9957 O   0  0
    7.8437   -0.7086    3.3474 N   0  0
    7.9892   -0.2897    4.6105 C   0  0
    7.3317    0.6043    5.1061 O   0  0
    8.9437   -0.9724    5.2714 N   0  5
    6.9189   -0.1726    2.4417 N   0  0
    5.6113   -0.4799    2.5525 C   0  0
    5.2352   -1.2204    3.4363 O   0  0
    4.6166    0.0966    1.5782 C   0  0
    3.2137   -0.4066    1.9239 C   0  0
    2.2441    0.1554    0.9742 N   0  0
    0.9301   -0.4845    1.1228 C   0  0
    0.0021   -0.0041    0.0020 C   0  0
   -0.0179    1.4666    0.0101 N   0  0
    1.2683    2.1800    0.0017 C   0  0
    2.1465    1.6136    1.1225 C   0  0
   -1.1838    2.1425    0.0194 C   0  0
   -2.2352    1.5380    0.0211 O   0  0
   -1.1811    3.6495    0.0275 C   0  0
   -2.6226    4.1621    0.0372 C   0  0
   -2.6199    5.6921    0.0455 C   0  0  2  0  0  0
   -2.0657    6.2122    1.3879 C   0  0
   -2.9210    7.4674    1.6912 C   0  0
   -4.3301    7.0463    1.2051 C   0  0
   -4.0596    6.2224   -0.0707 C   0  0
   12.1078   -3.5063    6.7884 H   0  0
   11.8967   -4.0425    5.0872 H   0  0
    9.9050   -4.6145    6.4716 H   0  0
    9.6963   -2.8785    6.8844 H   0  0
    9.6158   -4.0844    4.0621 H   0  0
    8.1973   -3.5268    5.0116 H   0  0
   11.1136   -0.6471    3.7411 H   0  0
   11.3478   -2.3739    3.3074 H   0  0
   12.8228   -1.7297    5.1989 H   0  0
   11.3889   -1.2059    6.1462 H   0  0
    7.2383    0.4563    1.6911 H   0  0
    4.6371    1.1947    1.6396 H   0  0
    4.8770   -0.2185    0.5570 H   0  0
    3.1923   -1.5047    1.8622 H   0  0
    2.9511   -0.0914    2.9445 H   0  0
    1.0445   -1.5768    1.0609 H   0  0
    0.4973   -0.2147    2.0974 H   0  0
   -1.0146   -0.3874    0.1737 H   0  0
    0.3784   -0.3624   -0.9676 H   0  0
    1.0978    3.2529    0.1743 H   0  0
    1.7668    2.0313   -0.9675 H   0  0
    3.1509    2.0580    1.0608 H   0  0
    1.6971    1.8543    2.0972 H   0  0
   -0.6581    4.0105    0.9253 H   0  0
   -0.6666    4.0212   -0.8709 H   0  0
   -3.1384    3.7922    0.9356 H   0  0
   -3.1461    3.8018   -0.8607 H   0  0
   -2.0017    6.0323   -0.7984 H   0  0
   -1.0079    6.4935    1.2785 H   0  0
   -2.2100    5.4575    2.1750 H   0  0
   -2.9353    7.6669    2.7729 H   0  0
   -2.5585    8.3270    1.1084 H   0  0
   -4.9287    7.9361    0.9604 H   0  0
   -4.8202    6.4184    1.9638 H   0  0
   -4.7654    5.3806   -0.1272 H   0  0
   -4.1497    6.8675   -0.9571 H   0  0
  1  6  1  0
  1  2  1  0
  2  3  1  0
  3  4  1  0
  4 12  1  0
  4  5  1  0
  4  7  1  0
  5  6  1  0
  7  8  2  0
  7  9  1  0
  9 10  1  0
  9 13  1  0
 10 11  2  0
 10 12  1  0
 13 14  1  0
 14 15  2  0
 14 16  1  0
 16 17  1  0
 17 18  1  0
 18 23  1  0
 18 19  1  0
 19 20  1  0
 20 21  1  0
 21 22  1  0
 21 24  1  0
 22 23  1  0
 24 25  2  0
 24 26  1  0
 26 27  1  0
 27 28  1  0
 28 32  1  0
 28 29  1  0
 29 30  1  0
 30 31  1  0
 31 32  1  0
  1 33  1  0
  1 34  1  0
  2 35  1  0
  2 36  1  0
  3 37  1  0
  3 38  1  0
  5 39  1  0
  5 40  1  0
  6 41  1  0
  6 42  1  0
 13 43  1  0
 16 44  1  0
 16 45  1  0
 17 46  1  0
 17 47  1  0
 19 48  1  0
 19 49  1  0
 20 50  1  0
 20 51  1  0
 22 52  1  0
 22 53  1  0
 23 54  1  0
 23 55  1  0
 26 56  1  0
 26 57  1  0
 27 58  1  0
 27 59  1  0
 28 60  1  0
 29 61  1  0
 29 62  1  0
 30 63  1  0
 30 64  1  0
 31 65  1  0
 31 66  1  0
 32 67  1  0
 32 68  1  0
M  CHG  1  12  -1
M  END
> <Name>
ZINC27124866

> <reference>
BDB50017122

> <quality>
0.720

> <status>
decoy

$$$$
ZINC27221170
  SciTegic06061311253D

 72 74  0  0  1  0            999 V2000
    1.2822    2.0747    1.8446 C   0  0
   -0.1007    1.4213    1.8841 C   0  0  1  0  0  0
   -0.9472    1.9455    0.7212 C   0  0
   -0.3217    1.5523   -0.5498 N   0  0
   -0.1949    0.0902   -0.6376 C   0  0
    0.6441   -0.4154    0.5390 C   0  0  1  0  0  0
    0.0378    0.0028    1.7649 O   0  0
    0.7128   -1.9433    0.4982 C   0  0
   -1.0736    2.0851   -1.6937 C   0  0  1  0  0  0
   -0.3650    1.6999   -2.9939 C   0  0
   -2.4877    1.5009   -1.6912 C   0  0
   -1.1514    3.6094   -1.5875 C   0  0
    0.2006    4.1599   -1.4632 N   0  0
    0.3749    5.4834   -1.2778 C   0  0
   -0.5875    6.2187   -1.2139 O   0  0
    1.7656    6.0496   -1.1500 C   0  0
    1.6864    7.5036   -0.9563 N   0  0
    1.1514    8.1661   -2.1540 C   0  0
    1.0103    9.6660   -1.8840 C   0  0
    2.3215   10.2210   -1.5200 N   0  0
    2.8565    9.5585   -0.3223 C   0  0
    2.9976    8.0586   -0.5923 C   0  0
    2.2423   11.6750   -1.3263 C   0  0
    3.6331   12.2415   -1.2005 C   0  0
    4.5971   11.5278   -1.3798 O   0  0
    3.8056   13.5413   -0.8886 N   0  0
    2.6514   14.4281   -0.6724 C   0  0
    2.8539   15.1611    0.6634 C   0  0
    4.1411   15.7831    0.6665 O   0  0
    5.2343   14.8664    0.5747 C   0  0
    5.1538   14.1170   -0.7602 C   0  0
    1.7752    1.8339    0.8912 H   0  0
    1.8918    1.6952    2.6779 H   0  0
    1.1760    3.1657    1.9363 H   0  0
   -0.5921    1.6653    2.8375 H   0  0
   -1.0086    3.0424    0.7756 H   0  0
   -1.9584    1.5166    0.7804 H   0  0
    0.2986   -0.1807   -1.5826 H   0  0
   -1.1941   -0.3682   -0.5991 H   0  0
    1.6615   -0.0028    0.4710 H   0  0
    1.1756   -2.2652   -0.4463 H   0  0
   -0.3033   -2.3588    0.5680 H   0  0
    1.3156   -2.3069    1.3435 H   0  0
   -0.3088    0.6041   -3.0713 H   0  0
    0.6518    2.1196   -2.9968 H   0  0
   -0.9276    2.0986   -3.8509 H   0  0
   -2.9982    1.7775   -0.7569 H   0  0
   -2.4329    0.4049   -1.7678 H   0  0
   -3.0513    1.8995   -2.5476 H   0  0
   -1.6307    4.0160   -2.4902 H   0  0
   -1.7422    3.8867   -0.7021 H   0  0
    1.0179    3.5354   -1.5175 H   0  0
    2.3364    5.8329   -2.0650 H   0  0
    2.2700    5.5921   -0.2861 H   0  0
    0.1656    7.7438   -2.3989 H   0  0
    1.8387    8.0089   -2.9984 H   0  0
    0.6382   10.1684   -2.7890 H   0  0
    0.3025    9.8261   -1.0573 H   0  0
    3.8423    9.9812   -0.0784 H   0  0
    2.1700    9.7154    0.5228 H   0  0
    3.3701    7.5568    0.3129 H   0  0
    3.7065    7.9004   -1.4184 H   0  0
    1.6739   11.8936   -0.4102 H   0  0
    1.7371   12.1331   -2.1894 H   0  0
    1.7280   13.8319   -0.6297 H   0  0
    2.5895   15.1613   -1.4900 H   0  0
    2.0750   15.9286    0.7832 H   0  0
    2.7927   14.4404    1.4922 H   0  0
    6.1835   15.4198    0.6279 H   0  0
    5.1811   14.1452    1.4036 H   0  0
    5.9028   13.3116   -0.7765 H   0  0
    5.3380   14.8178   -1.5878 H   0  0
  1  2  1  0
  2  7  1  0
  2  3  1  0
  3  4  1  0
  4  5  1  0
  4  9  1  0
  5  6  1  0
  6  7  1  0
  6  8  1  0
  9 10  1  0
  9 11  1  0
  9 12  1  0
 12 13  1  0
 13 14  1  0
 14 15  2  0
 14 16  1  0
 16 17  1  0
 17 22  1  0
 17 18  1  0
 18 19  1  0
 19 20  1  0
 20 21  1  0
 20 23  1  0
 21 22  1  0
 23 24  1  0
 24 25  2  0
 24 26  1  0
 26 31  1  0
 26 27  1  0
 27 28  1  0
 28 29  1  0
 29 30  1  0
 30 31  1  0
  1 32  1  0
  1 33  1  0
  1 34  1  0
  2 35  1  0
  3 36  1  0
  3 37  1  0
  5 38  1  0
  5 39  1  0
  6 40  1  0
  8 41  1  0
  8 42  1  0
  8 43  1  0
 10 44  1  0
 10 45  1  0
 10 46  1  0
 11 47  1  0
 11 48  1  0
 11 49  1  0
 12 50  1  0
 12 51  1  0
 13 52  1  0
 16 53  1  0
 16 54  1  0
 18 55  1  0
 18 56  1  0
 19 57  1  0
 19 58  1  0
 21 59  1  0
 21 60  1  0
 22 61  1  0
 22 62  1  0
 23 63  1  0
 23 64  1  0
 27 65  1  0
 27 66  1  0
 28 67  1  0
 28 68  1  0
 30 69  1  0
 30 70  1  0
 31 71  1  0
 31 72  1  0
M  END
> <Name>
ZINC27221170

> <reference>
BDB50017122

> <quality>
0.719

> <status>
decoy

$$$$
ZINC24677158
  SciTegic06061311253D

 62 64  0  0  1  0            999 V2000
    1.8373   -5.7807  -10.7959 C   0  0
    0.8654   -6.8722  -10.3432 C   0  0
    0.5080   -6.6558   -8.9527 O   0  0
   -0.3480   -7.5374   -8.3960 C   0  0
   -0.7834   -8.4617   -9.0557 O   0  0
   -0.7529   -7.3814   -6.9973 C   0  0
   -1.6007   -8.1603   -6.2639 C   0  0
   -1.8600   -7.8396   -4.9300 C   0  0
   -2.7330   -8.5309   -3.9540 C   0  0
   -3.3535   -9.5307   -4.2691 O   0  0
   -2.8236   -8.0252   -2.7084 N   0  0
   -2.1376   -6.9133   -2.3467 C   0  0
   -1.3636   -6.2771   -3.1834 N   0  0
   -1.1993   -6.6927   -4.4327 C   0  0
   -0.2613   -6.1251   -5.8287 S   0  0
   -2.2776   -6.3929   -0.9393 C   0  0  2  0  0  0
   -3.7576   -6.1673   -0.6238 C   0  0
   -1.5508   -5.1226   -0.8124 N   0  0
   -1.3148   -4.7861    0.6100 C   0  0
   -0.8311   -3.3395    0.7991 C   0  0
    0.1801   -2.9383   -0.2453 C   0  0
   -0.5363   -2.3025   -1.3723 N   0  0
   -1.1334   -3.2110   -2.2547 C   0  0
   -2.2066   -4.0735   -1.5604 C   0  0
    0.3387   -1.3673   -2.0919 C   0  0
    0.7671   -0.2626   -1.1607 C   0  0
    0.3814   -0.2549   -0.0109 O   0  0
    1.5788    0.7170   -1.6057 N   0  0
    1.9953    1.7910   -0.7005 C   0  0
    2.0496    0.7045   -2.9930 C   0  0
   -2.2546   -9.3640   -6.8922 C   0  0
    2.7447   -5.8158  -10.1751 H   0  0
    1.3592   -4.7957  -10.6899 H   0  0
    2.1085   -5.9441  -11.8494 H   0  0
   -0.0418   -6.8362  -10.9643 H   0  0
    1.3434   -7.8572  -10.4491 H   0  0
   -0.8682   -5.4317   -2.8660 H   0  0
   -1.8600   -7.1264   -0.2339 H   0  0
   -4.3028   -7.1180   -0.7183 H   0  0
   -4.1761   -5.4337   -1.3285 H   0  0
   -3.8605   -5.7874    0.4034 H   0  0
   -2.2498   -4.9281    1.1718 H   0  0
   -0.5606   -5.4730    1.0214 H   0  0
   -0.3771   -3.2378    1.7959 H   0  0
   -1.6947   -2.6606    0.7422 H   0  0
    0.8944   -2.2228    0.1881 H   0  0
    0.7147   -3.8300   -0.6046 H   0  0
   -1.5980   -2.6547   -3.0821 H   0  0
   -0.3575   -3.8691   -2.6728 H   0  0
   -2.8670   -4.5192   -2.3188 H   0  0
   -2.7966   -3.4455   -0.8766 H   0  0
   -0.2060   -0.9363   -2.9448 H   0  0
    1.2271   -1.9034   -2.4572 H   0  0
    2.4722    1.2808    0.1493 H   0  0
    1.0586    2.2339   -0.3311 H   0  0
    2.6563    2.5361   -1.1674 H   0  0
    1.1362    0.6820   -3.6055 H   0  0
    2.5496   -0.2674   -3.1173 H   0  0
    2.7056    1.5497   -3.2486 H   0  0
   -1.4225   -9.9804   -7.2630 H   0  0
   -2.7876   -8.9734   -7.7716 H   0  0
   -2.9168   -9.9171   -6.2098 H   0  0
  1  2  1  0
  2  3  1  0
  3  4  1  0
  4  5  2  0
  4  6  1  0
  6 15  1  0
  6  7  2  0
  7  8  1  0
  7 31  1  0
  8 14  2  0
  8  9  1  0
  9 10  2  0
  9 11  1  0
 11 12  2  0
 12 13  1  0
 12 16  1  0
 13 14  1  0
 14 15  1  0
 16 17  1  0
 16 18  1  0
 18 24  1  0
 18 19  1  0
 19 20  1  0
 20 21  1  0
 21 22  1  0
 22 23  1  0
 22 25  1  0
 23 24  1  0
 25 26  1  0
 26 27  2  0
 26 28  1  0
 28 29  1  0
 28 30  1  0
  1 32  1  0
  1 33  1  0
  1 34  1  0
  2 35  1  0
  2 36  1  0
 13 37  1  0
 16 38  1  0
 17 39  1  0
 17 40  1  0
 17 41  1  0
 19 42  1  0
 19 43  1  0
 20 44  1  0
 20 45  1  0
 21 46  1  0
 21 47  1  0
 23 48  1  0
 23 49  1  0
 24 50  1  0
 24 51  1  0
 25 52  1  0
 25 53  1  0
 29 54  1  0
 29 55  1  0
 29 56  1  0
 30 57  1  0
 30 58  1  0
 30 59  1  0
 31 60  1  0
 31 61  1  0
 31 62  1  0
M  END
> <Name>
ZINC24677158

> <reference>
BDB50017122

> <quality>
0.718

> <status>
decoy

$$$$
ZINC24928115
  SciTegic06061311253D

 64 66  0  0  1  0            999 V2000
   -5.7199    0.6596    5.0758 C   0  0
   -5.9397    0.1627    3.6455 C   0  0  1  0  0  0
   -7.2399    0.7118    3.1172 C   0  0
   -7.2445    1.4137    2.1282 O   0  0
   -8.3976    0.4227    3.7438 N   0  0
   -9.6616    0.9565    3.2302 C   0  0
  -10.7965    0.4888    4.1044 C   0  0
  -11.4510   -0.6936    3.8137 C   0  0
  -12.4891   -1.1248    4.6182 C   0  0
  -12.8789   -0.3690    5.7080 C   0  0
  -12.2279    0.8160    5.9957 C   0  0
  -11.1868    1.2450    5.1938 C   0  0
  -14.0131   -0.8372    6.5829 C   0  0
  -15.2809   -0.3017    6.0692 N   0  0
  -15.3269    1.1618    6.2017 C   0  0
  -16.6356    1.6823    5.6017 C   0  0
  -17.7388    1.0449    6.2514 O   0  0
  -17.7260   -0.3810    6.1417 C   0  0
  -16.4283   -0.9224    6.7472 C   0  0
   -4.8334    0.6186    2.7934 N   0  0
   -4.5706    2.0206    2.9946 C   0  0
   -4.2774    2.7117    1.6398 C   0  0
   -3.4399    1.7697    0.7475 C   0  0
   -2.3886    1.0380    1.3971 N   0  0
   -2.6990   -0.3080    1.9867 C   0  0
   -3.5926   -0.0778    3.1286 C   0  0
   -0.8618    1.6708    1.5005 S   0  0
   -0.2957    1.0654    2.6547 O   0  0
   -1.0476    3.0782    1.4380 O   0  0
   -0.0127    1.0858    0.0080 C   0  0
   -6.5477    0.3186    5.7148 H   0  0
   -5.6821    1.7589    5.0814 H   0  0
   -4.7710    0.2592    5.4621 H   0  0
   -5.9771   -0.9367    3.6409 H   0  0
   -8.3937   -0.1735    4.5837 H   0  0
   -9.8208    0.5997    2.2019 H   0  0
   -9.6246    2.0559    3.2353 H   0  0
  -11.1457   -1.2913    2.9422 H   0  0
  -13.0050   -2.0694    4.3912 H   0  0
  -12.5383    1.4176    6.8627 H   0  0
  -10.6689    2.1881    5.4226 H   0  0
  -13.8554   -0.4809    7.6116 H   0  0
  -14.0509   -1.9365    6.5774 H   0  0
  -14.4756    1.6071    5.6660 H   0  0
  -15.2768    1.4361    7.2658 H   0  0
  -16.7009    2.7702    5.7508 H   0  0
  -16.6632    1.4556    4.5257 H   0  0
  -18.5863   -0.7991    6.6849 H   0  0
  -17.7840   -0.6695    5.0818 H   0  0
  -16.3883   -2.0134    6.6128 H   0  0
  -16.3964   -0.6820    7.8201 H   0  0
   -5.4475    2.4924    3.4620 H   0  0
   -3.7016    2.1379    3.6588 H   0  0
   -5.2263    2.9459    1.1350 H   0  0
   -3.7176    3.6422    1.8155 H   0  0
   -2.9947    2.3615   -0.0659 H   0  0
   -4.1175    1.0467    0.2699 H   0  0
   -1.7711   -0.7883    2.3307 H   0  0
   -3.2050   -0.9352    1.2380 H   0  0
   -3.8426   -1.0485    3.5817 H   0  0
   -3.0524    0.5083    3.8866 H   0  0
   -0.4957    1.4609   -0.9063 H   0  0
    0.0544   -0.0119   -0.0160 H   0  0
    1.0134    1.4816    0.0288 H   0  0
  1  2  1  0
  2  3  1  0
  2 20  1  0
  3  4  2  0
  3  5  1  0
  5  6  1  0
  6  7  1  0
  7 12  2  0
  7  8  1  0
  8  9  2  0
  9 10  1  0
 10 11  2  0
 10 13  1  0
 11 12  1  0
 13 14  1  0
 14 19  1  0
 14 15  1  0
 15 16  1  0
 16 17  1  0
 17 18  1  0
 18 19  1  0
 20 26  1  0
 20 21  1  0
 21 22  1  0
 22 23  1  0
 23 24  1  0
 24 25  1  0
 24 27  1  0
 25 26  1  0
 27 28  2  0
 27 29  2  0
 27 30  1  0
  1 31  1  0
  1 32  1  0
  1 33  1  0
  2 34  1  0
  5 35  1  0
  6 36  1  0
  6 37  1  0
  8 38  1  0
  9 39  1  0
 11 40  1  0
 12 41  1  0
 13 42  1  0
 13 43  1  0
 15 44  1  0
 15 45  1  0
 16 46  1  0
 16 47  1  0
 18 48  1  0
 18 49  1  0
 19 50  1  0
 19 51  1  0
 21 52  1  0
 21 53  1  0
 22 54  1  0
 22 55  1  0
 23 56  1  0
 23 57  1  0
 25 58  1  0
 25 59  1  0
 26 60  1  0
 26 61  1  0
 30 62  1  0
 30 63  1  0
 30 64  1  0
M  END
> <Name>
ZINC24928115

> <reference>
BDB50017122

> <quality>
0.717

> <status>
decoy

$$$$
ZINC29912735
  SciTegic06061311253D

 48 51  0  0  0  0            999 V2000
    0.5238    1.7477    6.4982 C   0  0
    0.5015    1.6856    4.9926 C   0  0
   -0.4501    2.1934    4.1772 C   0  0
    0.0060    1.8650    2.8721 C   0  0
    1.1314    1.2181    3.0312 N   0  0
    1.4213    1.1157    4.2006 O   0  0
   -0.6214    2.1659    1.6677 N   0  5
    0.0666    1.6977    0.2361 S   0  0
    1.4282    2.1006    0.2889 O   0  0
   -0.8139    2.1217   -0.7955 O   0  0
    0.0634   -0.0641    0.2082 C   0  0
    1.1443   -0.7645    0.7142 C   0  0
    1.1477   -2.1478    0.7006 C   0  0
    0.0763   -2.8382    0.1719 C   0  0
   -1.0146   -2.1378   -0.3448 C   0  0
   -1.0140   -0.7421   -0.3231 C   0  0
   -2.1658   -2.8710   -0.9132 C   0  0
   -3.1144   -2.2584   -1.3630 O   0  0
   -2.1634   -4.2186   -0.9327 N   0  0
   -3.3041   -4.9451   -1.4960 C   0  0
   -3.0535   -6.4279   -1.3974 C   0  0
   -2.7513   -7.1651   -2.5297 C   0  0
   -2.5227   -8.5267   -2.3913 C   0  0
   -2.6138   -9.1035   -1.1393 C   0  0
   -2.9090   -8.3760   -0.0796 N   0  0
   -3.1283   -7.0743   -0.1703 C   0  0
   -3.4379   -6.3423    0.9803 N   0  0
   -2.7980   -6.4171    2.1913 C   0  0
   -3.4134   -5.5449    3.0117 C   0  0
   -4.4082   -4.9578    2.3296 N   0  0
   -4.4335   -5.4265    1.1121 C   0  0
    1.5025    2.2071    6.7009 H   0  0
    0.6267    0.6885    6.7765 H   0  0
   -0.3217    2.2594    6.9813 H   0  0
   -1.3651    2.7351    4.4588 H   0  0
    2.0046   -0.2189    1.1291 H   0  0
    2.0064   -2.6986    1.1121 H   0  0
    0.0821   -3.9381    0.1577 H   0  0
   -1.8708   -0.1841   -0.7288 H   0  0
   -1.3596   -4.7377   -0.5516 H   0  0
   -3.4333   -4.6652   -2.5519 H   0  0
   -4.2150   -4.6896   -0.9348 H   0  0
   -2.6937   -6.6824   -3.5165 H   0  0
   -2.2716   -9.1403   -3.2691 H   0  0
   -2.4379  -10.1833   -1.0248 H   0  0
   -1.9458   -7.0652    2.4436 H   0  0
   -3.1465   -5.3477    4.0605 H   0  0
   -5.1419   -5.1301    0.3244 H   0  0
  1  2  1  0
  2  6  1  0
  2  3  2  0
  3  4  1  0
  4  5  2  0
  4  7  1  0
  5  6  1  0
  7  8  1  0
  8  9  2  0
  8 10  2  0
  8 11  1  0
 11 16  2  0
 11 12  1  0
 12 13  2  0
 13 14  1  0
 14 15  2  0
 15 16  1  0
 15 17  1  0
 17 18  2  0
 17 19  1  0
 19 20  1  0
 20 21  1  0
 21 26  2  0
 21 22  1  0
 22 23  2  0
 23 24  1  0
 24 25  2  0
 25 26  1  0
 26 27  1  0
 27 31  1  0
 27 28  1  0
 28 29  2  0
 29 30  1  0
 30 31  2  0
  1 32  1  0
  1 33  1  0
  1 34  1  0
  3 35  1  0
 12 36  1  0
 13 37  1  0
 14 38  1  0
 16 39  1  0
 19 40  1  0
 20 41  1  0
 20 42  1  0
 22 43  1  0
 23 44  1  0
 24 45  1  0
 28 46  1  0
 29 47  1  0
 31 48  1  0
M  CHG  1   7  -1
M  END
> <Name>
ZINC29912735

> <reference>
BDB50017122

> <quality>
0.710

> <status>
decoy

$$$$
ZINC21140260
  SciTegic06061311253D

 56 58  0  0  0  0            999 V2000
  -14.2222    9.4317    3.2052 C   0  0
  -13.5875    9.1961    4.4636 O   0  0
  -12.4028    8.5345    4.4419 C   0  0
  -11.8626    8.1197    3.2300 C   0  0
  -10.6583    7.4529    3.2032 C   0  0
   -9.9848    7.1825    4.3975 C   0  0
  -10.5311    7.6010    5.6134 C   0  0
  -11.7331    8.2729    5.6312 C   0  0
  -12.3128    8.7167    6.9188 N   0  0
  -11.7268    8.4876    7.9617 O   0  0
  -13.3758    9.3111    6.9355 O   0  0
   -8.6968    6.4620    4.3739 C   0  0
   -8.1098    6.2319    5.4135 O   0  0
   -8.1714    6.0591    3.2000 N   0  0
   -6.8931    5.3440    3.1765 C   0  0
   -6.5310    5.0088    1.7526 C   0  0
   -7.2682    5.3351    0.8465 O   0  0
   -5.3879    4.3463    1.4860 N   0  0
   -5.0360    4.0205    0.1017 C   0  0
   -3.7209    3.2848    0.0776 C   0  0
   -3.7025    1.9041    0.1644 C   0  0
   -2.5021    1.2245    0.1424 C   0  0
   -1.3045    1.9331    0.0329 C   0  0
   -1.3299    3.3262   -0.0480 C   0  0
   -2.5374    3.9932   -0.0316 C   0  0
   -0.0144    1.2113    0.0087 C   0  0
    0.1577    0.2497    0.7320 O   0  0
    0.9689    1.6163   -0.8193 N   0  0
    0.8566    2.6815   -1.8264 C   0  0
    2.2177    2.7760   -2.5473 C   0  0
    2.8376    1.3753   -2.2999 C   0  0
    2.3333    1.0602   -0.8695 C   0  0
  -14.3620    8.4449    2.7397 H   0  0
  -13.4998    9.9935    2.5948 H   0  0
  -15.1754    9.9717    3.3040 H   0  0
  -12.3980    8.3245    2.2912 H   0  0
  -10.2269    7.1335    2.2431 H   0  0
  -10.0018    7.3941    6.5552 H   0  0
   -8.6687    6.2540    2.3193 H   0  0
   -6.9802    4.4157    3.7601 H   0  0
   -6.1091    5.9797    3.6137 H   0  0
   -4.7618    4.0691    2.2555 H   0  0
   -5.8195    3.3844   -0.3360 H   0  0
   -4.9473    4.9478   -0.4832 H   0  0
   -4.6470    1.3470    0.2511 H   0  0
   -2.4888    0.1267    0.2110 H   0  0
   -0.3892    3.8911   -0.1247 H   0  0
   -2.5593    5.0905   -0.1055 H   0  0
    0.6306    3.6389   -1.3340 H   0  0
    0.0696    2.4272   -2.5517 H   0  0
    2.0681    2.9408   -3.6245 H   0  0
    2.8419    3.5550   -2.0851 H   0  0
    3.9360    1.4330   -2.3144 H   0  0
    2.4346    0.6454   -3.0175 H   0  0
    2.3057   -0.0282   -0.7123 H   0  0
    2.9732    1.5594   -0.1270 H   0  0
  1  2  1  0
  2  3  1  0
  3  8  2  0
  3  4  1  0
  4  5  2  0
  5  6  1  0
  6  7  2  0
  6 12  1  0
  7  8  1  0
  8  9  1  0
  9 10  2  0
  9 11  2  0
 12 13  2  0
 12 14  1  0
 14 15  1  0
 15 16  1  0
 16 17  2  0
 16 18  1  0
 18 19  1  0
 19 20  1  0
 20 25  2  0
 20 21  1  0
 21 22  2  0
 22 23  1  0
 23 24  2  0
 23 26  1  0
 24 25  1  0
 26 27  2  0
 26 28  1  0
 28 32  1  0
 28 29  1  0
 29 30  1  0
 30 31  1  0
 31 32  1  0
  1 33  1  0
  1 34  1  0
  1 35  1  0
  4 36  1  0
  5 37  1  0
  7 38  1  0
 14 39  1  0
 15 40  1  0
 15 41  1  0
 18 42  1  0
 19 43  1  0
 19 44  1  0
 21 45  1  0
 22 46  1  0
 24 47  1  0
 25 48  1  0
 29 49  1  0
 29 50  1  0
 30 51  1  0
 30 52  1  0
 31 53  1  0
 31 54  1  0
 32 55  1  0
 32 56  1  0
M  END
> <Name>
ZINC21140260

> <reference>
BDB50017122

> <quality>
0.707

> <status>
decoy

$$$$
ZINC27578900
  SciTegic06061311253D

 55 57  0  0  1  0            999 V2000
    5.4630    3.8155    0.9470 C   0  0
    4.1462    4.5944    0.9489 C   0  0
    3.0355    3.6778    1.2393 N   0  3
    1.9855    4.3520    2.0145 C   0  0
    1.9973    3.8284    3.4521 C   0  0
    2.4898    3.1034    0.0022 C   0  0  2  0  0  0
    1.2248    2.3056    0.3251 C   0  0
    0.0727    3.2099    0.3597 N   0  0
   -1.1627    2.7191    0.5820 C   0  0
   -1.3372    1.5171    0.6457 O   0  0
   -2.3024    3.6382    0.7417 C   0  0
   -3.5457    3.1575    1.0704 C   0  0
   -4.6132    3.9859    1.2226 N   0  0
   -5.8926    3.3252    1.5015 C   0  0
   -6.7211    4.1539    2.4874 C   0  0
   -6.9470    5.7989    1.7398 S   0  0
   -7.3294    6.7446    2.7291 O   0  0
   -7.6613    5.6941    0.5158 O   0  0
   -5.4095    6.2276    1.3057 N   0  0
   -4.4630    5.3399    1.1026 C   0  0
   -3.1953    5.8856    0.7345 C   0  0
   -2.1269    5.0803    0.5584 C   0  0
    3.5136    2.1907   -0.6221 C   0  0
    4.0141    1.1201    0.0950 C   0  0
    4.9535    0.2832   -0.4774 C   0  0
    5.3926    0.5157   -1.7676 C   0  0
    4.8927    1.5854   -2.4857 C   0  0
    3.9486    2.4208   -1.9149 C   0  0
    3.3149    3.7606   -2.8189 Cl  0  0
    5.4250    3.0310    0.1769 H   0  0
    5.6182    3.3533    1.9330 H   0  0
    6.2951    4.5013    0.7296 H   0  0
    3.9909    5.0567   -0.0371 H   0  0
    4.1849    5.3784    1.7195 H   0  0
    3.4044    2.9048    1.8114 H   0  0
    2.1712    5.4362    2.0182 H   0  0
    1.0048    4.1494    1.5593 H   0  0
    2.9770    4.0312    3.9093 H   0  0
    1.8116    2.7442    3.4501 H   0  0
    1.2113    4.3328    4.0332 H   0  0
    2.2434    3.9130   -0.7005 H   0  0
    1.3373    1.8186    1.3050 H   0  0
    1.0663    1.5402   -0.4488 H   0  0
    0.2068    4.2207    0.2141 H   0  0
   -3.6816    2.0754    1.2142 H   0  0
   -5.7035    2.3307    1.9318 H   0  0
   -6.4541    3.2085    0.5629 H   0  0
   -7.7020    3.6808    2.6426 H   0  0
   -6.1817    4.2527    3.4410 H   0  0
   -3.0891    6.9713    0.5934 H   0  0
   -1.1469    5.4975    0.2835 H   0  0
    3.6647    0.9342    1.1213 H   0  0
    5.3519   -0.5682    0.0939 H   0  0
    6.1400   -0.1509   -2.2226 H   0  0
    5.2452    1.7727   -3.5107 H   0  0
  1  2  1  0
  2  3  1  0
  3  4  1  0
  3  6  1  0
  4  5  1  0
  6  7  1  0
  6 23  1  0
  7  8  1  0
  8  9  1  0
  9 10  2  0
  9 11  1  0
 11 22  1  0
 11 12  2  0
 12 13  1  0
 13 20  1  0
 13 14  1  0
 14 15  1  0
 15 16  1  0
 16 17  2  0
 16 18  2  0
 16 19  1  0
 19 20  2  0
 20 21  1  0
 21 22  2  0
 23 28  2  0
 23 24  1  0
 24 25  2  0
 25 26  1  0
 26 27  2  0
 27 28  1  0
 28 29  1  0
  1 30  1  0
  1 31  1  0
  1 32  1  0
  2 33  1  0
  2 34  1  0
  3 35  1  0
  4 36  1  0
  4 37  1  0
  5 38  1  0
  5 39  1  0
  5 40  1  0
  6 41  1  0
  7 42  1  0
  7 43  1  0
  8 44  1  0
 12 45  1  0
 14 46  1  0
 14 47  1  0
 15 48  1  0
 15 49  1  0
 21 50  1  0
 22 51  1  0
 24 52  1  0
 25 53  1  0
 26 54  1  0
 27 55  1  0
M  CHG  1   3   1
M  END
> <Name>
ZINC27578900

> <reference>
BDB50017122

> <quality>
0.704

> <status>
decoy

$$$$
ZINC09392130
  SciTegic06061311253D

 55 57  0  0  0  0            999 V2000
    6.2844    4.4839    6.5661 C   0  0
    5.2584    5.3769    6.1282 O   0  0
    3.9765    5.0370    6.4250 C   0  0
    2.9306    5.8584    6.0301 C   0  0
    1.6284    5.5103    6.3326 C   0  0
    1.3670    4.3444    7.0283 C   0  0
    2.4080    3.5269    7.4279 C   0  0
    3.7116    3.8676    7.1229 C   0  0
   -0.2950    3.9033    7.4126 S   0  0
   -1.0463    5.1095    7.4101 O   0  0
   -0.2362    3.0448    8.5434 O   0  0
   -0.8627    2.9895    6.1536 N   0  0
   -0.7081    1.5284    6.1598 C   0  0
   -0.0242    1.0995    4.8578 C   0  0
   -0.8170    1.6426    3.6668 C   0  0  1  0  0  0
   -0.8377    3.1720    3.7204 C   0  0
   -1.5309    3.6244    5.0095 C   0  0
   -0.1661    1.1940    2.3838 C   0  0
    0.8294    0.5102    2.4184 O   0  0
   -0.6923    1.5541    1.2026 O   0  0
   -0.0127    1.0858    0.0080 C   0  0
   -0.7416    1.5850   -1.2129 C   0  0
   -1.7355    2.2679   -1.0885 O   0  0
   -0.2884    1.2723   -2.4431 N   0  0
   -0.9403    1.7188   -3.5350 C   0  0
   -1.9367    2.4034   -3.4102 O   0  0
   -0.4872    1.4061   -4.7651 N   0  0
   -1.1957    1.8914   -5.9520 C   0  0  2  0  0  0
   -1.4144    0.9017   -7.0981 C   0  0
   -0.3922    2.0314   -7.2464 C   0  0
    6.0525    3.5047    6.1217 H   0  0
    6.1719    4.3946    7.6567 H   0  0
    7.2926    4.8258    6.2894 H   0  0
    3.1380    6.7861    5.4766 H   0  0
    0.7987    6.1613    6.0197 H   0  0
    2.1980    2.6044    7.9891 H   0  0
    4.5388    3.2123    7.4331 H   0  0
   -0.0885    1.2268    7.0172 H   0  0
   -1.6973    1.0523    6.2295 H   0  0
    0.0105    0.0013    4.8046 H   0  0
    0.9993    1.5017    4.8309 H   0  0
   -1.8478    1.2609    3.7087 H   0  0
   -1.3877    3.5634    2.8519 H   0  0
    0.1938    3.5539    3.7054 H   0  0
   -1.4600    4.7183    5.1004 H   0  0
   -2.5878    3.3206    4.9847 H   0  0
    0.0026   -0.0141    0.0008 H   0  0
    1.0191    1.4669   -0.0003 H   0  0
    0.5561    0.6921   -2.5488 H   0  0
    0.3572    0.8259   -4.8708 H   0  0
   -1.8450    2.5562   -5.3634 H   0  0
   -2.3400    1.1215   -7.6503 H   0  0
   -0.9231   -0.0619   -6.8979 H   0  0
    0.6366    1.6616   -7.1250 H   0  0
   -0.7806    2.8456   -7.8759 H   0  0
  1  2  1  0
  2  3  1  0
  3  8  2  0
  3  4  1  0
  4  5  2  0
  5  6  1  0
  6  7  2  0
  6  9  1  0
  7  8  1  0
  9 10  2  0
  9 11  2  0
  9 12  1  0
 12 17  1  0
 12 13  1  0
 13 14  1  0
 14 15  1  0
 15 16  1  0
 15 18  1  0
 16 17  1  0
 18 19  2  0
 18 20  1  0
 20 21  1  0
 21 22  1  0
 22 23  2  0
 22 24  1  0
 24 25  1  0
 25 26  2  0
 25 27  1  0
 27 28  1  0
 28 30  1  0
 28 29  1  0
 29 30  1  0
  1 31  1  0
  1 32  1  0
  1 33  1  0
  4 34  1  0
  5 35  1  0
  7 36  1  0
  8 37  1  0
 13 38  1  0
 13 39  1  0
 14 40  1  0
 14 41  1  0
 15 42  1  0
 16 43  1  0
 16 44  1  0
 17 45  1  0
 17 46  1  0
 21 47  1  0
 21 48  1  0
 24 49  1  0
 27 50  1  0
 28 51  1  0
 29 52  1  0
 29 53  1  0
 30 54  1  0
 30 55  1  0
M  END
> <Name>
ZINC09392130

> <reference>
BDB50017122

> <quality>
0.704

> <status>
decoy

$$$$
ZINC28939065
  SciTegic06061311253D

 53 56  0  0  0  0            999 V2000
   -1.4295    3.5347    3.1227 C   0  0
   -2.3494    2.6766    3.6902 C   0  0
   -2.5625    1.4176    3.1296 C   0  0
   -1.8436    1.0336    1.9976 C   0  0
   -0.9267    1.9002    1.4394 C   0  0
   -0.7158    3.1461    2.0032 C   0  0
   -0.0172    1.4168    0.0098 S   0  0
    0.0021   -0.0041    0.0020 O   0  0
    1.1718    2.1948    0.0027 O   0  0
   -0.8975    1.8855   -1.3122 N   0  0
   -1.1248    3.3089   -1.5738 C   0  0
   -1.6217    3.4906   -3.0094 C   0  0  2  0  0  0
   -0.7314    4.2810   -3.9704 C   0  0
   -2.0282    4.9004   -3.4431 C   0  0
   -3.5481    0.4916    3.7342 C   0  0
   -3.7323   -0.6087    3.2423 O   0  0
   -4.2345    0.8618    4.8173 N   0  0
   -5.1209    0.0290    5.3610 C   0  0
   -5.9134    0.2169    6.4553 N   0  0
   -6.7548   -0.7795    6.8358 C   0  0
   -6.7756   -1.9105    6.1224 C   0  0
   -5.5679   -1.5689    4.8537 S   0  0
   -7.6471   -0.6137    8.0388 C   0  0
   -8.9292   -0.0310    7.6210 N   0  0
   -8.7491    1.3448    7.1351 C   0  0
  -10.0964    1.8914    6.6555 C   0  0
  -11.0441    1.8141    7.7239 O   0  0
  -11.2444    0.4882    8.2210 C   0  0
   -9.9088   -0.0726    8.7164 C   0  0
   -1.2635    4.5297    3.5614 H   0  0
   -2.9133    2.9851    4.5828 H   0  0
   -2.0074    0.0418    1.5509 H   0  0
    0.0224    3.8303    1.5594 H   0  0
   -1.2852    1.1762   -1.9506 H   0  0
   -0.1837    3.8624   -1.4395 H   0  0
   -1.8802    3.6945   -0.8733 H   0  0
   -2.1023    2.5014   -3.0294 H   0  0
   -0.8453    3.9306   -5.0069 H   0  0
    0.1496    4.6935   -3.4568 H   0  0
   -1.8289    5.6392   -2.6528 H   0  0
   -2.8241    4.8749   -4.2020 H   0  0
   -5.8745    1.0998    6.9844 H   0  0
   -7.3802   -2.8163    6.2774 H   0  0
   -7.1623    0.0529    8.7672 H   0  0
   -7.8247   -1.5956    8.5018 H   0  0
   -8.0334    1.3497    6.2998 H   0  0
   -8.3671    1.9756    7.9513 H   0  0
   -9.9779    2.9401    6.3455 H   0  0
  -10.4542    1.2938    5.8041 H   0  0
  -11.9631    0.5125    9.0534 H   0  0
  -11.6346   -0.1520    7.4161 H   0  0
  -10.0476   -1.1129    9.0459 H   0  0
   -9.5459    0.5352    9.5584 H   0  0
  1  6  2  0
  1  2  1  0
  2  3  2  0
  3  4  1  0
  3 15  1  0
  4  5  2  0
  5  6  1  0
  5  7  1  0
  7  8  2  0
  7  9  2  0
  7 10  1  0
 10 11  1  0
 11 12  1  0
 12 14  1  0
 12 13  1  0
 13 14  1  0
 15 16  2  0
 15 17  1  0
 17 18  2  0
 18 22  1  0
 18 19  1  0
 19 20  1  0
 20 21  2  0
 20 23  1  0
 21 22  1  0
 23 24  1  0
 24 29  1  0
 24 25  1  0
 25 26  1  0
 26 27  1  0
 27 28  1  0
 28 29  1  0
  1 30  1  0
  2 31  1  0
  4 32  1  0
  6 33  1  0
 10 34  1  0
 11 35  1  0
 11 36  1  0
 12 37  1  0
 13 38  1  0
 13 39  1  0
 14 40  1  0
 14 41  1  0
 19 42  1  0
 21 43  1  0
 23 44  1  0
 23 45  1  0
 25 46  1  0
 25 47  1  0
 26 48  1  0
 26 49  1  0
 28 50  1  0
 28 51  1  0
 29 52  1  0
 29 53  1  0
M  END
> <Name>
ZINC28939065

> <reference>
BDB50017122

> <quality>
0.699

> <status>
decoy

$$$$
ZINC15331696
  SciTegic06061311253D

 43 44  0  0  0  0            999 V2000
    3.6034    2.1217   -0.0210 C   0  0
    2.3333    1.3916   -0.0127 N   0  0
    1.1534    2.0845    0.0022 C   0  0
   -0.0171    1.4115    0.0098 C   0  0
    0.0021   -0.0041    0.0020 C   0  0
   -1.0408   -0.6329    0.0082 O   0  0
    1.1858   -0.6496   -0.0128 N   0  0
    2.3379    0.0462   -0.0200 C   0  0
    3.3978   -0.5494   -0.0329 O   0  0
    1.2180   -2.1142   -0.0204 C   0  0
   -1.5482    2.2835    0.0218 S   0  0
   -1.2361    3.6548   -0.1820 O   0  0
   -2.4299    1.5678   -0.8323 O   0  0
   -2.1690    2.1618    1.5522 N   0  0
   -1.4670    2.7814    2.6789 C   0  0
   -2.4042    2.8538    3.8861 C   0  0
   -1.7022    3.4734    5.0128 N   0  0
   -2.3554    3.6478    6.2280 C   0  0
   -1.6807    4.2323    7.2967 C   0  0
   -2.3452    4.4046    8.4982 C   0  0
   -3.6626    3.9752    8.5944 C   0  0
   -4.2678    3.3989    7.4961 C   0  0
   -3.6116    3.2519    6.3604 N   0  0
   -4.4236    4.1375    9.8849 C   0  0  1  0  0  0
   -5.7190    3.6326    9.7290 F   0  0
   -3.7692    3.4363   10.9035 F   0  0
   -4.4890    5.4941   10.2203 F   0  0
   -0.0309    4.7436    7.1221 Cl  0  0
    4.1366    1.7641   -0.9142 H   0  0
    4.1537    1.7545    0.8578 H   0  0
    3.4859    3.2154   -0.0140 H   0  0
    1.1585    3.1845    0.0080 H   0  0
    0.6305   -2.4103   -0.9020 H   0  0
    0.6479   -2.4191    0.8695 H   0  0
    2.2336   -2.5366   -0.0324 H   0  0
   -3.0487    1.6505    1.7119 H   0  0
   -0.5836    2.1788    2.9368 H   0  0
   -1.1495    3.7972    2.4007 H   0  0
   -3.2877    3.4566    3.6290 H   0  0
   -2.7219    1.8387    4.1665 H   0  0
   -0.7248    3.7799    4.9049 H   0  0
   -1.8415    4.8711    9.3577 H   0  0
   -5.3110    3.0575    7.5682 H   0  0
  1  2  1  0
  2  8  1  0
  2  3  1  0
  3  4  2  0
  4  5  1  0
  4 11  1  0
  5  6  2  0
  5  7  1  0
  7  8  1  0
  7 10  1  0
  8  9  2  0
 11 12  2  0
 11 13  2  0
 11 14  1  0
 14 15  1  0
 15 16  1  0
 16 17  1  0
 17 18  1  0
 18 23  2  0
 18 19  1  0
 19 20  2  0
 19 28  1  0
 20 21  1  0
 21 22  2  0
 21 24  1  0
 22 23  1  0
 24 25  1  0
 24 26  1  0
 24 27  1  0
  1 29  1  0
  1 30  1  0
  1 31  1  0
  3 32  1  0
 10 33  1  0
 10 34  1  0
 10 35  1  0
 14 36  1  0
 15 37  1  0
 15 38  1  0
 16 39  1  0
 16 40  1  0
 17 41  1  0
 20 42  1  0
 22 43  1  0
M  END
> <Name>
ZINC15331696

> <reference>
BDB50017122

> <quality>
0.696

> <status>
decoy

$$$$
ZINC29185385
  SciTegic06061311253D

 51 53  0  0  1  0            999 V2000
    0.4140   -2.1449   -9.1033 C   0  0
    0.6792   -0.8550   -8.3244 C   0  0  2  0  0  0
   -0.6157   -0.0403   -8.2269 C   0  0
   -0.2959    1.2712   -7.6413 N   0  0
    0.8089    2.0422   -8.2333 C   0  0
    2.0378    1.1236   -8.3270 C   0  0  2  0  0  0
    1.6719   -0.0818   -9.0029 O   0  0
    2.5399    0.7889   -6.9211 C   0  0
   -1.1582    1.8651   -6.3583 S   0  0
   -2.4313    1.2416   -6.4574 O   0  0
   -1.0332    3.2770   -6.4598 O   0  0
   -0.2809    1.2642   -4.8887 C   0  0
   -0.9970    1.7576   -3.6299 C   0  0
   -0.2884    1.2723   -2.4431 N   0  0
   -0.7416    1.5850   -1.2129 C   0  0
   -1.7359    2.2682   -1.0884 O   0  0
   -0.0127    1.0858    0.0080 C   0  0
   -0.6984    1.5583    1.2133 N   0  0
   -1.7117    0.8961    1.8807 C   0  0
   -2.0734    1.6196    2.9062 N   0  0
   -1.2866    2.7794    2.9175 N   0  0
   -0.4456    2.7105    1.8653 C   0  0
    0.7292    3.8785    1.4333 S   0  0
   -2.2867   -0.4052    1.4995 C   0  0
   -3.0725   -1.2525    2.2380 C   0  0
   -3.4995   -2.4278    1.6627 C   0  0
   -3.1232   -2.7171    0.3898 C   0  0
   -2.1356   -1.2939   -0.0416 S   0  0
    1.3444   -2.7271   -9.1768 H   0  0
    0.0571   -1.8967  -10.1138 H   0  0
   -0.3499   -2.7397   -8.5810 H   0  0
    1.0345   -1.1067   -7.3142 H   0  0
   -1.3362   -0.5659   -7.5830 H   0  0
   -1.0414    0.0981   -9.2317 H   0  0
    1.0425    2.9067   -7.5945 H   0  0
    0.5251    2.3827   -9.2400 H   0  0
    2.8371    1.6340   -8.8843 H   0  0
    1.7432    0.2786   -6.3599 H   0  0
    2.8159    1.7177   -6.4004 H   0  0
    3.4192    0.1316   -6.9898 H   0  0
   -0.2664    0.1643   -4.8944 H   0  0
    0.7512    1.6446   -4.8954 H   0  0
   -1.0115    2.8575   -3.6234 H   0  0
   -2.0291    1.3772   -3.6209 H   0  0
    0.5561    0.6922   -2.5488 H   0  0
    0.0018   -0.0141    0.0024 H   0  0
    1.0194    1.4662    0.0013 H   0  0
    0.4034    4.1726    0.1355 H   0  0
   -3.3560   -0.9979    3.2699 H   0  0
   -4.1375   -3.1242    2.2266 H   0  0
   -3.3649   -3.6011   -0.2186 H   0  0
  1  2  1  0
  2  7  1  0
  2  3  1  0
  3  4  1  0
  4  5  1  0
  4  9  1  0
  5  6  1  0
  6  7  1  0
  6  8  1  0
  9 10  2  0
  9 11  2  0
  9 12  1  0
 12 13  1  0
 13 14  1  0
 14 15  1  0
 15 16  2  0
 15 17  1  0
 17 18  1  0
 18 22  1  0
 18 19  1  0
 19 20  2  0
 19 24  1  0
 20 21  1  0
 21 22  2  0
 22 23  1  0
 24 28  1  0
 24 25  2  0
 25 26  1  0
 26 27  2  0
 27 28  1  0
  1 29  1  0
  1 30  1  0
  1 31  1  0
  2 32  1  0
  3 33  1  0
  3 34  1  0
  5 35  1  0
  5 36  1  0
  6 37  1  0
  8 38  1  0
  8 39  1  0
  8 40  1  0
 12 41  1  0
 12 42  1  0
 13 43  1  0
 13 44  1  0
 14 45  1  0
 17 46  1  0
 17 47  1  0
 23 48  1  0
 25 49  1  0
 26 50  1  0
 27 51  1  0
M  END
> <Name>
ZINC29185385

> <reference>
BDB50017122

> <quality>
0.691

> <status>
decoy

$$$$
ZINC02965091
  SciTegic06061311253D

 67 70  0  0  0  0            999 V2000
   -9.8917    7.0318   -5.7786 C   0  0
  -11.1541    6.4624   -5.0915 C   0  0
  -10.8985    6.6258   -3.5817 C   0  0
   -8.8197    6.9414   -4.6636 C   0  0
   -8.8839    6.7933   -2.2342 C   0  0
   -7.4384    7.2947   -2.2453 C   0  0
   -6.7134    6.7887   -0.9967 C   0  0
   -5.3294    7.2689   -1.0074 N   0  0
   -4.4959    6.9450    0.0011 C   0  0
   -4.8918    6.2561    0.9174 O   0  0
   -3.0722    7.4389   -0.0099 C   0  0  1  0  0  0
   -2.3473    6.9326    1.2392 C   0  0
   -0.9108    7.4651    1.2421 C   0  0
   -0.2653    7.0909   -0.0236 N   0  0
   -0.9223    7.4548   -1.2864 C   0  0
   -2.3614    6.9176   -1.2609 C   0  0
    1.1789    6.2804   -0.0269 S   0  0
    1.8097    6.5698    1.2131 O   0  0
    1.7954    6.5543   -1.2775 O   0  0
    0.8317    4.6613   -0.0148 N   0  0
    0.6675    3.9215   -1.2735 C   0  0
    1.6059    2.7107   -1.2599 C   0  0
    1.3450    1.8819   -0.0007 C   0  0  1  0  0  0
    1.6207    2.7260    1.2451 C   0  0
    0.6825    3.9371    1.2548 C   0  0
   -0.0175    1.4379    0.0099 O   0  0
    0.0021   -0.0041    0.0020 C   0  0
    1.4062   -0.3325   -0.5640 C   0  0
    2.2079    0.7326    0.0011 O   0  0
   -9.5931    7.2757   -3.4573 N   0  3
   -9.6072    6.4014   -6.6340 H   0  0
  -10.0553    8.0810   -6.0657 H   0  0
  -11.2712    5.3972   -5.3398 H   0  0
  -12.0392    7.0442   -5.3882 H   0  0
  -11.6779    7.2622   -3.1373 H   0  0
  -10.8733    5.6387   -3.0969 H   0  0
   -8.0297    7.6881   -4.8320 H   0  0
   -8.4265    5.9163   -4.5956 H   0  0
   -9.3980    7.1744   -1.3395 H   0  0
   -8.8900    5.6934   -2.2179 H   0  0
   -6.9266    6.9187   -3.1435 H   0  0
   -7.4307    8.3947   -2.2523 H   0  0
   -7.2245    7.1647   -0.0981 H   0  0
   -6.7190    5.6887   -0.9886 H   0  0
   -4.9933    7.8540   -1.7856 H   0  0
   -3.0649    8.5389   -0.0166 H   0  0
   -2.8720    7.2888    2.1380 H   0  0
   -2.3302    5.8327    1.2346 H   0  0
   -0.3551    7.0242    2.0828 H   0  0
   -0.9243    8.5608    1.3385 H   0  0
   -0.3771    7.0066   -2.1301 H   0  0
   -0.9398    8.5496   -1.3915 H   0  0
   -2.8966    7.2607   -2.1586 H   0  0
   -2.3420    5.8179   -1.2411 H   0  0
    0.9219    4.5741   -2.1217 H   0  0
   -0.3736    3.5788   -1.3666 H   0  0
    2.6507    3.0547   -1.2620 H   0  0
    1.4204    2.0924   -2.1506 H   0  0
    1.4454    2.1194    2.1458 H   0  0
    2.6649    3.0717    1.2319 H   0  0
    0.9474    4.6007    2.0911 H   0  0
   -0.3573    3.5956    1.3656 H   0  0
   -0.7770   -0.3956   -0.6686 H   0  0
   -0.0940   -0.3946    1.0259 H   0  0
    1.7475   -1.3104   -0.1936 H   0  0
    1.4000   -0.2695   -1.6622 H   0  0
   -9.7043    8.2959   -3.3690 H   0  0
  1  4  1  0
  1  2  1  0
  2  3  1  0
  3 30  1  0
  4 30  1  0
  5  6  1  0
  5 30  1  0
  6  7  1  0
  7  8  1  0
  8  9  1  0
  9 10  2  0
  9 11  1  0
 11 16  1  0
 11 12  1  0
 12 13  1  0
 13 14  1  0
 14 15  1  0
 14 17  1  0
 15 16  1  0
 17 18  2  0
 17 19  2  0
 17 20  1  0
 20 25  1  0
 20 21  1  0
 21 22  1  0
 22 23  1  0
 23 29  1  0
 23 24  1  0
 23 26  1  0
 24 25  1  0
 26 27  1  0
 27 28  1  0
 28 29  1  0
  1 31  1  0
  1 32  1  0
  2 33  1  0
  2 34  1  0
  3 35  1  0
  3 36  1  0
  4 37  1  0
  4 38  1  0
  5 39  1  0
  5 40  1  0
  6 41  1  0
  6 42  1  0
  7 43  1  0
  7 44  1  0
  8 45  1  0
 11 46  1  0
 12 47  1  0
 12 48  1  0
 13 49  1  0
 13 50  1  0
 15 51  1  0
 15 52  1  0
 16 53  1  0
 16 54  1  0
 21 55  1  0
 21 56  1  0
 22 57  1  0
 22 58  1  0
 24 59  1  0
 24 60  1  0
 25 61  1  0
 25 62  1  0
 27 63  1  0
 27 64  1  0
 28 65  1  0
 28 66  1  0
 30 67  1  0
M  CHG  1  30   1
M  END
> <Name>
ZINC02965091

> <reference>
BDB50017122

> <quality>
0.689

> <status>
decoy

$$$$
ZINC20033735
  SciTegic06061311253D

 51 53  0  0  0  0            999 V2000
   -5.7855   -2.1106    1.0686 C   0  0
   -4.7167   -1.2305    1.5475 N   0  0
   -3.9865   -0.4747    0.6447 C   0  0
   -2.9741    0.3478    1.1230 C   0  0
   -2.7274    0.3979    2.5119 C   0  0
   -1.8485    1.1147    2.9561 O   0  0
   -3.4724   -0.3623    3.3413 N   0  0
   -4.4453   -1.1577    2.8643 C   0  0
   -5.0971   -1.8281    3.6416 O   0  0
   -3.2174   -0.3197    4.7833 C   0  0
   -2.4300    0.9727    0.0189 N   0  0
   -3.0992    0.5201   -1.0594 C   0  0
   -4.0166   -0.3340   -0.6830 N   0  0
   -1.3295    1.9397    0.0189 C   0  0
   -0.0143    1.2041    0.0087 C   0  0
    0.0021   -0.0041    0.0020 O   0  0
    1.1389    1.8910    0.0013 O   0  0
    2.3672    1.1168   -0.0145 C   0  0
    3.5497    2.0510   -0.0208 C   0  0
    3.3746    3.2506   -0.0127 O   0  0
    4.8019    1.5528   -0.0355 N   0  0
    5.8595    2.3883   -0.0411 C   0  0
    5.6839    3.5909   -0.0329 O   0  0
    7.1117    1.8902   -0.0557 N   0  0
    8.2613    2.7983   -0.0618 C   0  0
    9.5556    1.9826   -0.0785 C   0  0
   10.7381    2.9167   -0.0848 C   0  0
   11.4145    3.4446    0.9646 C   0  0
   12.4834    4.2857    0.7183 C   0  0
   12.8170    4.5662   -0.5652 C   0  0
   11.6067    3.6216   -1.4762 S   0  0
   -6.6874   -1.7873    1.6090 H   0  0
   -5.5224   -3.1112    1.4421 H   0  0
   -5.9215   -2.0926   -0.0228 H   0  0
   -3.3223    0.7383    5.0656 H   0  0
   -2.1565   -0.5864    4.8986 H   0  0
   -3.8787   -0.9755    5.3687 H   0  0
   -2.9040    0.8227   -2.0988 H   0  0
   -1.3910    2.5669    0.9205 H   0  0
   -1.4002    2.5758   -0.8757 H   0  0
    2.3935    0.4871   -0.9161 H   0  0
    2.4099    0.4782    0.8802 H   0  0
    4.9507    0.5336   -0.0425 H   0  0
    7.2605    0.8710   -0.0626 H   0  0
    8.2195    3.4370   -0.9564 H   0  0
    8.2373    3.4281    0.8398 H   0  0
    9.5983    1.3440    0.8161 H   0  0
    9.5819    1.3529   -0.9801 H   0  0
   11.1172    3.2072    1.9967 H   0  0
   13.0548    4.7209    1.5514 H   0  0
   13.6241    5.2091   -0.9465 H   0  0
  1  2  1  0
  2  8  1  0
  2  3  1  0
  3 13  1  0
  3  4  2  0
  4  5  1  0
  4 11  1  0
  5  6  2  0
  5  7  1  0
  7  8  1  0
  7 10  1  0
  8  9  2  0
 11 12  1  0
 11 14  1  0
 12 13  2  0
 14 15  1  0
 15 16  2  0
 15 17  1  0
 17 18  1  0
 18 19  1  0
 19 20  2  0
 19 21  1  0
 21 22  1  0
 22 23  2  0
 22 24  1  0
 24 25  1  0
 25 26  1  0
 26 27  1  0
 27 31  1  0
 27 28  2  0
 28 29  1  0
 29 30  2  0
 30 31  1  0
  1 32  1  0
  1 33  1  0
  1 34  1  0
 10 35  1  0
 10 36  1  0
 10 37  1  0
 12 38  1  0
 14 39  1  0
 14 40  1  0
 18 41  1  0
 18 42  1  0
 21 43  1  0
 24 44  1  0
 25 45  1  0
 25 46  1  0
 26 47  1  0
 26 48  1  0
 28 49  1  0
 29 50  1  0
 30 51  1  0
M  END
> <Name>
ZINC20033735

> <reference>
BDB50017122

> <quality>
0.689

> <status>
decoy

$$$$
ZINC30675148
  SciTegic06061311253D

 51 52  0  0  1  0            999 V2000
    4.4209   -0.3483    9.5052 C   0  0
    3.7931   -0.1013    8.1319 C   0  0
    2.5130    0.5120    8.2968 O   0  0
    1.8164    0.8005    7.1653 C   0  0
    2.3557    0.4987    5.9231 C   0  0
    1.6489    0.7914    4.7738 C   0  0
    0.3982    1.3885    4.8612 C   0  0
   -0.1382    1.6958    6.1042 C   0  0
    0.5672    1.3968    7.2534 C   0  0
   -0.1167    1.7797    8.8314 S   0  0
    0.8961    2.4615    9.5585 O   0  0
   -1.3967    2.3486    8.5921 O   0  0
   -0.3759    0.3436    9.6142 N   0  0
    0.6774   -0.2341   10.4527 C   0  0
   -1.6585   -0.3491    9.4682 C   0  0
   -0.3196    1.6857    3.6952 N   0  0
   -0.2416    0.8658    2.6284 C   0  0
    0.5127   -0.0839    2.6473 O   0  0
   -1.0916    1.1289    1.4121 C   0  0  2  0  0  0
   -0.8118    0.0580    0.3549 C   0  0
   -1.4674    0.4924   -0.9615 C   0  0
   -0.7389    1.7303   -1.4862 C   0  0  2  0  0  0
   -0.6341    2.7415   -0.4417 N   0  0
   -0.7683    2.4880    0.8607 C   0  0
   -0.6199    3.4037    1.6419 O   0  0
   -1.5157    2.3105   -2.6697 C   0  0  1  0  0  0
   -2.8030    2.6661   -2.2533 F   0  0
   -0.8521    3.4436   -3.1526 F   0  0
   -1.6021    1.3524   -3.6855 F   0  0
    3.7700   -1.0122   10.0930 H   0  0
    4.5392    0.6095   10.0330 H   0  0
    5.4064   -0.8204    9.3790 H   0  0
    4.4445    0.5629    7.5449 H   0  0
    3.6747   -1.0591    7.6040 H   0  0
    3.3466    0.0261    5.8539 H   0  0
    2.0764    0.5517    3.7890 H   0  0
   -1.1248    2.1773    6.1739 H   0  0
    0.9161    0.5572   11.1785 H   0  0
    1.5469   -0.3168    9.7840 H   0  0
    0.4175   -1.1887   10.9334 H   0  0
   -1.7781   -0.4805    8.3826 H   0  0
   -2.4089    0.3935    9.7772 H   0  0
   -1.7417   -1.2950   10.0234 H   0  0
   -0.9069    2.5308    3.6533 H   0  0
   -2.1555    1.0950    1.6894 H   0  0
   -1.2381   -0.9028    0.6792 H   0  0
    0.2739   -0.0432    0.2101 H   0  0
   -1.3892   -0.3206   -1.6983 H   0  0
   -2.5256    0.7355   -0.7849 H   0  0
    0.2729    1.4381   -1.8036 H   0  0
   -0.4445    3.7128   -0.7274 H   0  0
  1  2  1  0
  2  3  1  0
  3  4  1  0
  4  9  2  0
  4  5  1  0
  5  6  2  0
  6  7  1  0
  7  8  2  0
  7 16  1  0
  8  9  1  0
  9 10  1  0
 10 11  2  0
 10 12  2  0
 10 13  1  0
 13 14  1  0
 13 15  1  0
 16 17  1  0
 17 18  2  0
 17 19  1  0
 19 24  1  0
 19 20  1  0
 20 21  1  0
 21 22  1  0
 22 23  1  0
 22 26  1  0
 23 24  1  0
 24 25  2  0
 26 27  1  0
 26 28  1  0
 26 29  1  0
  1 30  1  0
  1 31  1  0
  1 32  1  0
  2 33  1  0
  2 34  1  0
  5 35  1  0
  6 36  1  0
  8 37  1  0
 14 38  1  0
 14 39  1  0
 14 40  1  0
 15 41  1  0
 15 42  1  0
 15 43  1  0
 16 44  1  0
 19 45  1  0
 20 46  1  0
 20 47  1  0
 21 48  1  0
 21 49  1  0
 22 50  1  0
 23 51  1  0
M  END
> <Name>
ZINC30675148

> <reference>
BDB50017122

> <quality>
0.688

> <status>
decoy

$$$$
ZINC28936639
  SciTegic06061311253D

 58 60  0  0  1  0            999 V2000
   -0.0184    1.5028    0.0103 C   0  0
    0.0021   -0.0041    0.0020 C   0  0
   -0.0032   -0.8162   -1.1353 C   0  0
    0.0243   -2.1127   -0.7217 C   0  0
    0.0364   -2.1095    0.6308 N   0  0
    0.0221   -0.7758    1.0585 N   0  0
    0.0611   -3.2919    1.4955 C   0  0  2  0  0  0
   -1.1673   -3.2846    2.4204 C   0  0
   -0.9900   -4.3368    3.5415 C   0  0
    0.8377   -4.4277    3.7248 S   0  0
    1.2717   -5.7378    3.3864 O   0  0
    1.2056   -3.8715    4.9796 O   0  0
    1.3370   -3.2659    2.3847 C   0  0
    0.0315   -3.2398   -1.5432 N   0  0
    0.0175   -3.0970   -2.8833 C   0  0
   -0.0013   -1.9883   -3.3749 O   0  0
    0.0253   -4.3148   -3.7710 C   0  0
    0.0072   -3.8961   -5.1747 N   0  0
    1.1126   -3.6652   -5.9102 C   0  0
    2.2658   -3.7600   -5.5485 O   0  0
    0.6141   -3.2614   -7.2836 C   0  0  1  0  0  0
   -0.8519   -3.3169   -7.1499 N   0  5
   -1.1088   -3.7011   -5.8865 C   0  0
   -2.2294   -3.8512   -5.4406 O   0  0
    1.0701   -1.8416   -7.6258 C   0  0
    1.0958   -4.2534   -8.3442 C   0  0
    0.5789   -3.8220   -9.7181 C   0  0
    1.0606   -4.8140  -10.7787 C   0  0  1  0  0  0
    0.4425   -4.4545  -12.1314 C   0  0
    2.5858   -4.7498  -10.8817 C   0  0
    0.8630    1.7562    0.6177 H   0  0
   -0.8953    1.7322    0.6335 H   0  0
   -0.0339    1.9897   -0.9760 H   0  0
   -0.0256   -0.4694   -2.1790 H   0  0
    0.0561   -4.1915    0.8625 H   0  0
   -2.0680   -3.5229    1.8356 H   0  0
   -1.2802   -2.2872    2.8704 H   0  0
   -1.4423   -3.9818    4.4793 H   0  0
   -1.3822   -5.3134    3.2214 H   0  0
    2.2021   -3.6714    1.8395 H   0  0
    1.5039   -2.2618    2.8018 H   0  0
    0.0475   -4.1813   -1.1257 H   0  0
    0.9332   -4.9046   -3.5765 H   0  0
   -0.8629   -4.9288   -3.5608 H   0  0
    2.1693   -1.8041   -7.6086 H   0  0
    0.6729   -1.1459   -6.8720 H   0  0
    0.7033   -1.5587   -8.6235 H   0  0
    2.1956   -4.2723   -8.3562 H   0  0
    0.7143   -5.2579   -8.1086 H   0  0
    0.9604   -2.8181   -9.9560 H   0  0
   -0.5209   -3.8033   -9.7069 H   0  0
    0.7548   -5.8317  -10.4947 H   0  0
    0.7480   -3.4370  -12.4165 H   0  0
   -0.6541   -4.5006  -12.0585 H   0  0
    0.7884   -5.1673  -12.8944 H   0  0
    3.0312   -5.0083   -9.9097 H   0  0
    2.8927   -3.7324  -11.1660 H   0  0
    2.9328   -5.4628  -11.6441 H   0  0
  1  2  1  0
  2  6  2  0
  2  3  1  0
  3  4  2  0
  4  5  1  0
  4 14  1  0
  5  6  1  0
  5  7  1  0
  7 13  1  0
  7  8  1  0
  8  9  1  0
  9 10  1  0
 10 11  2  0
 10 12  2  0
 10 13  1  0
 14 15  1  0
 15 16  2  0
 15 17  1  0
 17 18  1  0
 18 23  1  0
 18 19  1  0
 19 20  2  0
 19 21  1  0
 21 22  1  0
 21 25  1  0
 21 26  1  0
 22 23  1  0
 23 24  2  0
 26 27  1  0
 27 28  1  0
 28 29  1  0
 28 30  1  0
  1 31  1  0
  1 32  1  0
  1 33  1  0
  3 34  1  0
  7 35  1  0
  8 36  1  0
  8 37  1  0
  9 38  1  0
  9 39  1  0
 13 40  1  0
 13 41  1  0
 14 42  1  0
 17 43  1  0
 17 44  1  0
 25 45  1  0
 25 46  1  0
 25 47  1  0
 26 48  1  0
 26 49  1  0
 27 50  1  0
 27 51  1  0
 28 52  1  0
 29 53  1  0
 29 54  1  0
 29 55  1  0
 30 56  1  0
 30 57  1  0
 30 58  1  0
M  CHG  1  22  -1
M  END
> <Name>
ZINC28936639

> <reference>
BDB50017122

> <quality>
0.687

> <status>
decoy

$$$$
ZINC12432626
  SciTegic06061311253D

 60 61  0  0  1  0            999 V2000
    1.3971    5.0273   -1.6839 C   0  0
    0.1417    5.7187   -1.1483 C   0  0  1  0  0  0
   -0.6121    6.3757   -2.3063 C   0  0
   -0.7615    4.6844   -0.4733 C   0  0
   -0.0547    4.1172    0.7594 C   0  0
   -0.9664    3.2223    1.4764 N   0  0
   -1.0668    1.8666    1.3163 C   0  0
   -2.0261    1.4444    2.1620 C   0  0
   -2.4926    2.5119    2.8266 N   0  0
   -1.8647    3.5809    2.4188 C   0  0
   -2.1434    5.2204    3.0010 S   0  0
   -2.6547    5.0560    4.3166 O   0  0
   -0.9134    5.8972    2.7812 O   0  0
   -3.4287    5.8903    1.9103 C   0  0  1  0  0  0
   -4.6889    5.0294    2.0185 C   0  0
   -3.7543    7.3258    2.3275 C   0  0
   -0.2629    1.0117    0.3708 C   0  0
    0.7582   -0.3186    2.1173 C   0  0
    1.9371    0.0575    0.0362 C   0  0  2  0  0  0
    1.3683   -1.2490   -0.5209 C   0  0
    2.3459   -1.8371   -1.5404 C   0  0
    3.6875   -2.1144   -0.8593 C   0  0
    4.2564   -0.8079   -0.3022 C   0  0
    3.2788   -0.2198    0.7173 C   0  0
    1.0105    0.6458    1.0260 N   0  0
    2.0473    5.7701   -2.1692 H   0  0
    1.1094    4.2586   -2.4162 H   0  0
    1.9396    4.5547   -0.8518 H   0  0
    0.4304    6.4870   -0.4159 H   0  0
   -0.9015    5.6082   -3.0392 H   0  0
    0.0363    7.1197   -2.7921 H   0  0
   -1.5148    6.8730   -1.9219 H   0  0
   -0.9777    3.8686   -1.1789 H   0  0
   -1.7031    5.1637   -0.1673 H   0  0
    0.8374    3.5557    0.4448 H   0  0
    0.2459    4.9415    1.4228 H   0  0
   -2.3673    0.4060    2.2860 H   0  0
   -3.0680    5.8834    0.8711 H   0  0
   -5.0508    5.0359    3.0573 H   0  0
   -4.4560    3.9971    1.7184 H   0  0
   -5.4688    5.4351    1.3573 H   0  0
   -2.8490    7.9457    2.2497 H   0  0
   -4.1155    7.3339    3.3665 H   0  0
   -4.5337    7.7327    1.6665 H   0  0
   -0.0538    1.5757   -0.5502 H   0  0
   -0.8275    0.0993    0.1285 H   0  0
    0.2868   -1.2218    1.7026 H   0  0
    0.0835    0.1374    2.8567 H   0  0
    1.7082   -0.5881    2.6020 H   0  0
    2.0721    0.7639   -0.7961 H   0  0
    0.4037   -1.0507   -1.0111 H   0  0
    1.2216   -1.9652    0.3010 H   0  0
    1.9373   -2.7767   -1.9406 H   0  0
    2.4940   -1.1219   -2.3629 H   0  0
    4.3912   -2.5371   -1.5915 H   0  0
    3.5403   -2.8298   -0.0368 H   0  0
    5.2207   -1.0073    0.1880 H   0  0
    4.4038   -0.0911   -1.1235 H   0  0
    3.6881    0.7195    1.1174 H   0  0
    3.1328   -0.9358    1.5395 H   0  0
  1  2  1  0
  2  3  1  0
  2  4  1  0
  4  5  1  0
  5  6  1  0
  6 10  1  0
  6  7  1  0
  7  8  2  0
  7 17  1  0
  8  9  1  0
  9 10  2  0
 10 11  1  0
 11 12  2  0
 11 13  2  0
 11 14  1  0
 14 15  1  0
 14 16  1  0
 17 25  1  0
 18 25  1  0
 19 24  1  0
 19 20  1  0
 19 25  1  0
 20 21  1  0
 21 22  1  0
 22 23  1  0
 23 24  1  0
  1 26  1  0
  1 27  1  0
  1 28  1  0
  2 29  1  0
  3 30  1  0
  3 31  1  0
  3 32  1  0
  4 33  1  0
  4 34  1  0
  5 35  1  0
  5 36  1  0
  8 37  1  0
 14 38  1  0
 15 39  1  0
 15 40  1  0
 15 41  1  0
 16 42  1  0
 16 43  1  0
 16 44  1  0
 17 45  1  0
 17 46  1  0
 18 47  1  0
 18 48  1  0
 18 49  1  0
 19 50  1  0
 20 51  1  0
 20 52  1  0
 21 53  1  0
 21 54  1  0
 22 55  1  0
 22 56  1  0
 23 57  1  0
 23 58  1  0
 24 59  1  0
 24 60  1  0
M  END
> <Name>
ZINC12432626

> <reference>
BDB50272062

> <quality>
0.903

> <status>
decoy

$$$$
ZINC30789176
  SciTegic06061311253D

 44 46  0  0  0  0            999 V2000
   11.4098   10.5494    1.2434 C   0  0
   10.6254   10.6764    2.5508 C   0  0  1  0  0  0
   11.4636   11.4428    3.5760 C   0  0
    9.3206   11.4322    2.2914 C   0  0
    8.4420   10.6183    1.3768 C   0  0
    7.5493    9.7287    1.7393 N   0  0
    7.0168    9.2634    0.5953 C   0  0
    7.6054    9.8785   -0.3864 N   0  0
    8.4239   10.6649    0.0413 O   0  0
    5.9398    8.2163    0.4740 C   0  0
    4.3127    9.0183    0.4846 S   0  0
    3.1766    7.6795    0.3376 C   0  0
    3.4169    6.3858    0.2401 N   0  0
    2.3684    5.5009    0.1385 N   0  0
    1.1288    5.9506    0.1277 C   0  0
    1.3915    7.7108    0.2802 S   0  0
   -0.0642    5.2431    0.0299 N   0  0
   -0.0425    3.8656   -0.2022 C   0  0
   -1.1032    3.0721    0.2185 C   0  0
   -1.0816    1.7105   -0.0115 C   0  0
   -0.0060    1.1334   -0.6602 C   0  0
    1.0584    1.9198   -1.0779 C   0  0
    1.0384    3.2875   -0.8538 C   0  0
    2.1176    1.3499   -1.7104 O   0  0
    2.0687   -0.0639   -1.9122 C   0  0
   12.3480   10.0059    1.4288 H   0  0
   11.6386   11.5520    0.8529 H   0  0
   10.8077    9.9985    0.5058 H   0  0
   10.3969    9.6733    2.9402 H   0  0
   11.6924   12.4462    3.1876 H   0  0
   12.4018   10.9001    3.7634 H   0  0
   10.9002   11.5345    4.5163 H   0  0
    8.7990   11.6016    3.2450 H   0  0
    9.5439   12.4000    1.8186 H   0  0
    6.0696    7.6640   -0.4684 H   0  0
    6.0089    7.5178    1.3209 H   0  0
   -0.9640    5.7346    0.1286 H   0  0
   -1.9603    3.5288    0.7349 H   0  0
   -1.9220    1.0840    0.3222 H   0  0
    0.0063    0.0492   -0.8456 H   0  0
    1.8774    3.9136   -1.1916 H   0  0
    1.1500   -0.2632   -2.4834 H   0  0
    1.9509   -0.5147   -0.9157 H   0  0
    2.9592   -0.4509   -2.4292 H   0  0
  1  2  1  0
  2  3  1  0
  2  4  1  0
  4  5  1  0
  5  9  1  0
  5  6  2  0
  6  7  1  0
  7  8  2  0
  7 10  1  0
  8  9  1  0
 10 11  1  0
 11 12  1  0
 12 16  1  0
 12 13  2  0
 13 14  1  0
 14 15  2  0
 15 16  1  0
 15 17  1  0
 17 18  1  0
 18 23  2  0
 18 19  1  0
 19 20  2  0
 20 21  1  0
 21 22  2  0
 22 23  1  0
 22 24  1  0
 24 25  1  0
  1 26  1  0
  1 27  1  0
  1 28  1  0
  2 29  1  0
  3 30  1  0
  3 31  1  0
  3 32  1  0
  4 33  1  0
  4 34  1  0
 10 35  1  0
 10 36  1  0
 17 37  1  0
 19 38  1  0
 20 39  1  0
 21 40  1  0
 23 41  1  0
 25 42  1  0
 25 43  1  0
 25 44  1  0
M  END
> <Name>
ZINC30789176

> <reference>
BDB50272062

> <quality>
0.889

> <status>
decoy

$$$$
ZINC11671511
  SciTegic06061311253D

 33 34  0  0  1  0            999 V2000
    4.9040    0.7746    3.2341 C   0  0
    4.0511    0.4966    2.0232 C   0  0
    4.2171   -0.6415    1.3023 C   0  0
    2.9715   -0.4157    0.0409 S   0  0
    2.3766    1.1221    0.5859 C   0  0
    3.1306    1.3544    1.6354 N   0  0
    1.2804    1.9746    0.0004 C   0  5
    1.6269    2.3370   -1.3835 C   0  0
    1.8942    2.6167   -2.4516 N   0  0
   -0.0143    1.2034    0.0087 C   0  0
    0.0021   -0.0041    0.0020 O   0  0
   -1.3295    1.9391    0.0189 C   0  0
   -2.4029    0.9958    0.0189 O   0  0
   -3.6574    1.4949    0.0275 C   0  0
   -3.8333    2.6994    0.0349 O   0  0
   -4.7648    0.6201    0.0280 C   0  0
   -6.0273    1.1223    0.0367 C   0  0
   -7.1366    0.2460    0.0372 C   0  0
   -8.4939    0.5499    0.0510 C   0  0
   -9.3687   -0.5059    0.0434 C   0  0
   -8.8776   -1.7759    0.0347 C   0  0
   -7.1604   -1.5379    0.0282 S   0  0
   -9.7582   -3.2719    0.0310 Cl  0  0
    4.1878    0.9306    4.0543 H   0  0
    5.3791    1.7451    3.0282 H   0  0
    5.6357   -0.0162    3.4559 H   0  0
    4.9224   -1.4721    1.4527 H   0  0
   -1.3925    2.5654    0.9210 H   0  0
   -1.4018    2.5757   -0.8753 H   0  0
   -4.6059   -0.4683    0.0213 H   0  0
   -6.1862    2.2107    0.0434 H   0  0
   -8.8496    1.5907    0.0673 H   0  0
  -10.4544   -0.3291    0.0443 H   0  0
  1  2  1  0
  2  6  1  0
  2  3  2  0
  3  4  1  0
  4  5  1  0
  5  6  2  0
  5  7  1  0
  7  8  1  0
  7 10  1  0
  8  9  3  0
 10 11  2  0
 10 12  1  0
 12 13  1  0
 13 14  1  0
 14 15  2  0
 14 16  1  0
 16 17  2  0
 17 18  1  0
 18 22  1  0
 18 19  2  0
 19 20  1  0
 20 21  2  0
 21 22  1  0
 21 23  1  0
  1 24  1  0
  1 25  1  0
  1 26  1  0
  3 27  1  0
 12 28  1  0
 12 29  1  0
 16 30  1  0
 17 31  1  0
 19 32  1  0
 20 33  1  0
M  CHG  1   7  -1
M  END
> <Name>
ZINC11671511

> <reference>
BDB50272062

> <quality>
0.873

> <status>
decoy

$$$$
ZINC04878827
  SciTegic06061311253D

 49 51  0  0  1  0            999 V2000
    2.7039    7.9763   -6.9583 C   0  0
    2.8955    7.4509   -5.5342 C   0  0
    3.9654    6.3571   -5.5338 C   0  0
    4.1570    5.8316   -4.1097 C   0  0
    5.2268    4.7379   -4.1093 C   0  0
    5.4058    4.2471   -2.7792 O   0  0
    6.3211    3.2708   -2.6043 C   0  0
    6.9499    2.8484   -3.5569 O   0  0
    6.5494    2.7392   -1.3155 C   0  0
    7.3766    1.6893   -1.1942 C   0  0
    7.6625    1.1176    0.0207 N   0  0
    7.2762    1.8111    1.1585 C   0  0
    7.5883    1.6374    2.4109 N   0  0
    7.0038    2.5221    3.1441 N   0  0
    6.2843    3.3103    2.4122 N   0  0
    6.4327    2.8746    1.0972 N   0  0
    5.8526    3.3771   -0.1426 C   0  0  2  0  0  0
    4.3849    3.0377   -0.1846 C   0  0
    3.4452    4.0489   -0.2709 C   0  0
    2.0996    3.7418   -0.3092 C   0  0
    1.6898    2.4147   -0.2611 C   0  0
    2.6366    1.4015   -0.1690 C   0  0
    3.9808    1.7159   -0.1370 C   0  0
   -0.0263    2.0179   -0.3097 S   0  0
   -0.0605    0.2063   -0.2234 C   0  0
    8.0141    1.1186   -2.4347 C   0  0
    2.3855    7.1528   -7.6144 H   0  0
    3.6528    8.3925   -7.3275 H   0  0
    1.9348    8.7627   -6.9593 H   0  0
    3.2142    8.2750   -4.8790 H   0  0
    1.9466    7.0347   -5.1649 H   0  0
    3.6472    5.5325   -6.1886 H   0  0
    4.9155    6.7718   -5.9017 H   0  0
    4.4756    6.6557   -3.4544 H   0  0
    3.2081    5.4154   -3.7405 H   0  0
    4.9086    3.9133   -4.7641 H   0  0
    6.1769    5.1526   -4.4773 H   0  0
    8.1447    0.2097    0.0850 H   0  0
    5.9772    4.4690   -0.1905 H   0  0
    3.7703    5.0991   -0.3091 H   0  0
    1.3528    4.5466   -0.3777 H   0  0
    2.3156    0.3504   -0.1217 H   0  0
    4.7311    0.9140   -0.0736 H   0  0
    0.3639   -0.1715    0.7185 H   0  0
    0.4353   -0.2589   -1.0881 H   0  0
   -1.1161   -0.1018   -0.2502 H   0  0
    8.5543    1.9552   -2.9020 H   0  0
    7.1801    0.8496   -3.0996 H   0  0
    8.6734    0.2624   -2.2294 H   0  0
  1  2  1  0
  2  3  1  0
  3  4  1  0
  4  5  1  0
  5  6  1  0
  6  7  1  0
  7  8  2  0
  7  9  1  0
  9 17  1  0
  9 10  2  0
 10 11  1  0
 10 26  1  0
 11 12  1  0
 12 16  1  0
 12 13  2  0
 13 14  1  0
 14 15  2  0
 15 16  1  0
 16 17  1  0
 17 18  1  0
 18 23  2  0
 18 19  1  0
 19 20  2  0
 20 21  1  0
 21 22  2  0
 21 24  1  0
 22 23  1  0
 24 25  1  0
  1 27  1  0
  1 28  1  0
  1 29  1  0
  2 30  1  0
  2 31  1  0
  3 32  1  0
  3 33  1  0
  4 34  1  0
  4 35  1  0
  5 36  1  0
  5 37  1  0
 11 38  1  0
 17 39  1  0
 19 40  1  0
 20 41  1  0
 22 42  1  0
 23 43  1  0
 25 44  1  0
 25 45  1  0
 25 46  1  0
 26 47  1  0
 26 48  1  0
 26 49  1  0
M  END
> <Name>
ZINC04878827

> <reference>
BDB50272062

> <quality>
0.847

> <status>
decoy

$$$$
ZINC29848914
  SciTegic06061311253D

 48 50  0  0  0  0            999 V2000
   -0.7288    1.5792    1.2668 C   0  0
   -0.0127    1.0858    0.0080 C   0  0
   -0.7150    1.5668   -1.1683 O   0  0
   -0.2090    1.2178   -2.3689 C   0  0
    0.7920    0.5302   -2.4302 O   0  0
   -0.8661    1.6677   -3.6002 C   0  0
   -0.4559    1.3911   -4.8716 C   0  0
   -1.3735    2.0150   -5.7466 C   0  0
   -2.3107    2.6598   -4.9597 C   0  0
   -2.0005    2.4475   -3.6714 N   0  0
   -3.4813    3.4641   -5.4635 C   0  0
   -1.3358    1.9886   -7.2184 C   0  0
   -0.7242    2.8451   -7.8260 O   0  0
   -1.9794    1.0146   -7.8915 O   0  0
   -1.8992    1.0512   -9.3408 C   0  0
   -2.6731   -0.1070   -9.9161 C   0  0
   -4.0277   -0.0990  -10.2662 C   0  0
   -4.3381   -1.2828  -10.7300 N   0  0
   -3.1894   -2.0837  -10.6901 N   0  0
   -2.1790   -1.3364  -10.1908 C   0  0
   -3.1016   -3.4213  -11.1005 C   0  0
   -1.8927   -4.0982  -11.0116 C   0  0
   -1.8104   -5.4173  -11.4126 C   0  0
   -2.9280   -6.0607  -11.9117 C   0  0
   -4.1323   -5.3877  -12.0060 C   0  0
   -4.2220   -4.0700  -11.6020 C   0  0
    0.7459    0.5728   -5.2677 C   0  0
   -1.7609    1.1988    1.2757 H   0  0
   -0.7440    2.6791    1.2739 H   0  0
   -0.1972    1.2151    2.1584 H   0  0
    1.0191    1.4669   -0.0002 H   0  0
    0.0026   -0.0141    0.0008 H   0  0
   -2.5268    2.8099   -2.8636 H   0  0
   -3.9946    2.7516   -6.1260 H   0  0
   -3.0004    4.1979   -6.1271 H   0  0
   -4.1323    3.9121   -4.6983 H   0  0
   -2.3268    1.9958   -9.7081 H   0  0
   -0.8469    0.9792   -9.6529 H   0  0
   -4.7138    0.7553  -10.1684 H   0  0
   -1.1418   -1.6683  -10.0358 H   0  0
   -1.0014   -3.5845  -10.6222 H   0  0
   -0.8548   -5.9566  -11.3349 H   0  0
   -2.8589   -7.1100  -12.2344 H   0  0
   -5.0197   -5.9023  -12.4031 H   0  0
   -5.1802   -3.5350  -11.6775 H   0  0
    0.5741   -0.3727   -4.7324 H   0  0
    1.5620    1.0766   -4.7290 H   0  0
    0.9260    0.4526   -6.3462 H   0  0
  1  2  1  0
  2  3  1  0
  3  4  1  0
  4  5  2  0
  4  6  1  0
  6 10  1  0
  6  7  2  0
  7  8  1  0
  7 27  1  0
  8  9  2  0
  8 12  1  0
  9 10  1  0
  9 11  1  0
 12 13  2  0
 12 14  1  0
 14 15  1  0
 15 16  1  0
 16 20  2  0
 16 17  1  0
 17 18  2  0
 18 19  1  0
 19 20  1  0
 19 21  1  0
 21 26  2  0
 21 22  1  0
 22 23  2  0
 23 24  1  0
 24 25  2  0
 25 26  1  0
  1 28  1  0
  1 29  1  0
  1 30  1  0
  2 31  1  0
  2 32  1  0
 10 33  1  0
 11 34  1  0
 11 35  1  0
 11 36  1  0
 15 37  1  0
 15 38  1  0
 17 39  1  0
 20 40  1  0
 22 41  1  0
 23 42  1  0
 24 43  1  0
 25 44  1  0
 26 45  1  0
 27 46  1  0
 27 47  1  0
 27 48  1  0
M  END
> <Name>
ZINC29848914

> <reference>
BDB50272062

> <quality>
0.843

> <status>
decoy

$$$$
ZINC16169778
  SciTegic06061311253D

 52 53  0  0  0  0            999 V2000
    4.9751   -2.8695   -0.0635 C   0  0
    3.6628   -2.1288   -0.0461 C   0  0
    2.5211   -2.8029   -0.0388 C   0  0
    1.2343   -2.0766   -0.0217 C   0  0
    1.2191   -0.6849   -0.0190 C   0  0
    0.0021   -0.0041    0.0020 C   0  0
   -1.1999   -0.7201    0.0096 C   0  0
   -1.1844   -2.1014    0.0017 C   0  0
    0.0274   -2.7872   -0.0140 C   0  0
    0.0390   -4.1444   -0.0223 O   0  0
    0.0324   -4.7854   -1.2994 C   0  0
   -2.3555   -2.7931    0.0087 O   0  0
   -3.5615   -2.0267    0.0243 C   0  0
   -0.0179    1.4708    0.0101 C   0  0
    1.0259    2.0926    0.0035 O   0  0
   -1.1939    2.1286    0.0193 O   0  0
   -1.1376    3.5795    0.0269 C   0  0
   -2.5378    4.1365    0.0366 C   0  0
   -3.4900    3.3843    0.0370 O   0  0
   -2.7494    5.5856    0.0454 C   0  0
   -1.7173    6.6310    0.0527 C   0  0
   -2.3690    7.8060    0.0557 C   0  0
   -3.7138    7.5725    0.0608 N   0  0
   -3.9611    6.2506    0.0548 C   0  0
   -5.3233    5.6060    0.0582 C   0  0
   -4.7429    8.6151    0.0709 C   0  0
   -1.7186    9.1654    0.0604 C   0  0
    4.9300   -3.5149   -0.9531 H   0  0
    4.9476   -3.5254    0.8191 H   0  0
    5.8547   -2.2090   -0.0683 H   0  0
    3.6521   -1.0289   -0.0395 H   0  0
    2.5318   -3.9028   -0.0455 H   0  0
    2.1648   -0.1232   -0.0334 H   0  0
   -2.1592   -0.1820    0.0219 H   0  0
    0.9133   -4.4080   -1.8395 H   0  0
   -0.8649   -4.4233   -1.8226 H   0  0
    0.0426   -5.8828   -1.2246 H   0  0
   -3.5256   -1.3755   -0.8615 H   0  0
   -3.5090   -1.3856    0.9166 H   0  0
   -4.4647   -2.6546    0.0292 H   0  0
   -0.6099    3.9318   -0.8716 H   0  0
   -0.6015    3.9211    0.9246 H   0  0
   -0.6275    6.4815    0.0552 H   0  0
   -5.2703    4.9397    0.9319 H   0  0
   -5.2790    4.9488   -0.8228 H   0  0
   -6.1873    6.2868    0.0660 H   0  0
   -4.4851    9.2268   -0.8062 H   0  0
   -4.4769    9.2179    0.9518 H   0  0
   -5.7857    8.2651    0.0740 H   0  0
   -1.0579    9.1245   -0.8181 H   0  0
   -1.0594    9.1192    0.9398 H   0  0
   -2.4024   10.0271    0.0624 H   0  0
  1  2  1  0
  2  3  2  0
  3  4  1  0
  4  9  2  0
  4  5  1  0
  5  6  2  0
  6  7  1  0
  6 14  1  0
  7  8  2  0
  8  9  1  0
  8 12  1  0
  9 10  1  0
 10 11  1  0
 12 13  1  0
 14 15  2  0
 14 16  1  0
 16 17  1  0
 17 18  1  0
 18 19  2  0
 18 20  1  0
 20 24  2  0
 20 21  1  0
 21 22  2  0
 22 23  1  0
 22 27  1  0
 23 24  1  0
 23 26  1  0
 24 25  1  0
  1 28  1  0
  1 29  1  0
  1 30  1  0
  2 31  1  0
  3 32  1  0
  5 33  1  0
  7 34  1  0
 11 35  1  0
 11 36  1  0
 11 37  1  0
 13 38  1  0
 13 39  1  0
 13 40  1  0
 17 41  1  0
 17 42  1  0
 21 43  1  0
 25 44  1  0
 25 45  1  0
 25 46  1  0
 26 47  1  0
 26 48  1  0
 26 49  1  0
 27 50  1  0
 27 51  1  0
 27 52  1  0
M  END
> <Name>
ZINC16169778

> <reference>
BDB50272062

> <quality>
0.838

> <status>
decoy

$$$$
ZINC04599881
  SciTegic06061311253D

 56 58  0  0  1  0            999 V2000
   -0.9714    3.2652   -1.1834 C   0  0
   -0.9796    1.7352   -1.1753 C   0  0  1  0  0  0
   -0.3517    1.2150   -2.4699 C   0  0
   -0.1741    1.2272    0.0222 C   0  0
   -0.8715    1.6425    1.3191 C   0  0  2  0  0  0
   -0.9156   -0.0849    3.0299 C   0  0  1  0  0  0
   -1.8624    0.4654    3.9706 O   0  0
   -1.1149    1.4954    4.6575 C   0  0
   -0.2431    2.1216    3.5490 C   0  0  1  0  0  0
   -1.0232    3.2807    2.8939 C   0  0
   -0.8164    3.0761    1.4770 O   0  0
    1.1313    2.5570    4.0612 C   0  0
    0.9674    3.5871    5.0713 O   0  0
    2.0899    4.0821    5.6277 C   0  0
    3.1759    3.6647    5.2786 O   0  0
    2.0002    5.1326    6.6624 C   0  0
    3.1595    5.6516    7.2529 C   0  0
    3.0209    6.6381    8.2129 C   0  0
    1.7535    7.0682    8.5639 C   0  0
    0.6786    6.5573    7.9946 N   0  0
    0.7585    5.6208    7.0723 C   0  0
   -1.6518   -0.8120    1.9028 C   0  0
   -2.3693   -2.0383    2.4703 C   0  0  1  0  0  0
   -3.2058   -2.6944    1.3700 C   0  0
   -1.3353   -3.0391    2.9901 C   0  0
   -0.1940    1.1027    2.5167 N   0  0
   -1.5505    3.6315   -2.0439 H   0  0
    0.0647    3.6270   -1.2587 H   0  0
   -1.4227    3.6399   -0.2529 H   0  0
   -2.0160    1.3745   -1.0997 H   0  0
    0.6849    1.5750   -2.5464 H   0  0
   -0.9303    1.5795   -3.3315 H   0  0
   -0.3573    0.1150   -2.4647 H   0  0
   -0.1047    0.1302   -0.0211 H   0  0
    0.8369    1.6599   -0.0044 H   0  0
   -1.8991    1.2577    1.2414 H   0  0
   -0.2369   -0.8240    3.4805 H   0  0
   -0.4753    1.0504    5.4339 H   0  0
   -1.7987    2.2510    5.0717 H   0  0
   -0.5991    4.2467    3.2052 H   0  0
   -2.0929    3.2023    3.1382 H   0  0
    1.6497    1.6922    4.5009 H   0  0
    1.7259    2.9550    3.2258 H   0  0
    4.1544    5.2843    6.9609 H   0  0
    3.9090    7.0759    8.6921 H   0  0
    1.6403    7.8491    9.3303 H   0  0
   -0.1611    5.2199    6.6211 H   0  0
   -0.9290   -1.1323    1.1380 H   0  0
   -2.3893   -0.1337    1.4490 H   0  0
   -3.0272   -1.7287    3.2957 H   0  0
   -2.5487   -3.0045    0.5441 H   0  0
   -3.9498   -1.9757    0.9958 H   0  0
   -3.7220   -3.5762    1.7774 H   0  0
   -0.7335   -2.5684    3.7815 H   0  0
   -0.6770   -3.3495    2.1653 H   0  0
   -1.8506   -3.9211    3.3983 H   0  0
  1  2  1  0
  2  3  1  0
  2  4  1  0
  4  5  1  0
  5 11  1  0
  5 26  1  0
  6  7  1  0
  6 22  1  0
  6 26  1  0
  7  8  1  0
  8  9  1  0
  9 10  1  0
  9 12  1  0
  9 26  1  0
 10 11  1  0
 12 13  1  0
 13 14  1  0
 14 15  2  0
 14 16  1  0
 16 21  2  0
 16 17  1  0
 17 18  2  0
 18 19  1  0
 19 20  2  0
 20 21  1  0
 22 23  1  0
 23 24  1  0
 23 25  1  0
  1 27  1  0
  1 28  1  0
  1 29  1  0
  2 30  1  0
  3 31  1  0
  3 32  1  0
  3 33  1  0
  4 34  1  0
  4 35  1  0
  5 36  1  0
  6 37  1  0
  8 38  1  0
  8 39  1  0
 10 40  1  0
 10 41  1  0
 12 42  1  0
 12 43  1  0
 17 44  1  0
 18 45  1  0
 19 46  1  0
 21 47  1  0
 22 48  1  0
 22 49  1  0
 23 50  1  0
 24 51  1  0
 24 52  1  0
 24 53  1  0
 25 54  1  0
 25 55  1  0
 25 56  1  0
M  END
> <Name>
ZINC04599881

> <reference>
BDB50272062

> <quality>
0.831

> <status>
decoy

$$$$
ZINC05264777
  SciTegic06061311253D

 46 47  0  0  0  0            999 V2000
   -8.6306   -0.0532   -2.5513 C   0  0
   -7.1142   -0.0412   -2.7545 C   0  0
   -6.4279    0.3670   -1.4494 C   0  0
   -4.9115    0.3790   -1.6526 C   0  0
   -4.2356    0.7811   -0.3672 C   0  0
   -4.9030    1.0339    0.6175 O   0  0
   -2.9105    0.8594   -0.3096 N   0  0
   -2.3133    1.2146    0.8262 C   0  0
   -0.9841    1.3476    1.0729 N   0  0
   -0.5463    1.7357    2.3278 C   0  0
    0.7731    1.9306    2.7668 C   0  0
    1.0360    2.3204    4.0575 C   0  0
    0.0059    2.5343    4.9686 C   0  0
   -1.3091    2.3483    4.5576 C   0  0
   -1.5658    1.9579    3.2651 C   0  0
   -3.0455    1.6154    2.3461 S   0  0
    0.3634    3.0346    6.6198 S   0  0
    2.1738    3.1392    6.6645 C   0  0
   -0.0127    1.0858    0.0080 C   0  0
   -0.5242    1.6561   -1.2898 C   0  0
   -1.5033    2.3639   -1.2944 O   0  0
    0.1080    1.3776   -2.4406 O   0  0
   -0.4403    1.9611   -3.6519 C   0  0
    0.4072    1.5348   -4.8523 C   0  0
   -8.9702    0.9511   -2.2578 H   0  0
   -8.8900   -0.7728   -1.7608 H   0  0
   -9.1246   -0.3466   -3.4893 H   0  0
   -6.7754   -1.0458   -3.0476 H   0  0
   -6.8547    0.6784   -3.5450 H   0  0
   -6.7659    1.3718   -1.1559 H   0  0
   -6.6853   -0.3522   -0.6579 H   0  0
   -4.6520    1.0986   -2.4431 H   0  0
   -4.5727   -0.6257   -1.9457 H   0  0
    1.6071    1.7690    2.0680 H   0  0
    2.0786    2.4660    4.3764 H   0  0
   -2.1381    2.5124    5.2618 H   0  0
    2.5618    3.9005    5.9718 H   0  0
    2.6496    2.1650    6.4786 H   0  0
    2.4577    3.4503    7.6807 H   0  0
    0.1306    0.0006   -0.1005 H   0  0
    0.9472    1.5588    0.2627 H   0  0
   -0.4311    3.0579   -3.5686 H   0  0
   -1.4743    1.6126   -3.7915 H   0  0
    0.3982    0.4382   -4.9378 H   0  0
    1.4416    1.8827   -4.7142 H   0  0
   -0.0077    1.9765   -5.7703 H   0  0
  1  2  1  0
  2  3  1  0
  3  4  1  0
  4  5  1  0
  5  6  2  0
  5  7  1  0
  7  8  2  0
  8 16  1  0
  8  9  1  0
  9 10  1  0
  9 19  1  0
 10 15  2  0
 10 11  1  0
 11 12  2  0
 12 13  1  0
 13 14  2  0
 13 17  1  0
 14 15  1  0
 15 16  1  0
 17 18  1  0
 19 20  1  0
 20 21  2  0
 20 22  1  0
 22 23  1  0
 23 24  1  0
  1 25  1  0
  1 26  1  0
  1 27  1  0
  2 28  1  0
  2 29  1  0
  3 30  1  0
  3 31  1  0
  4 32  1  0
  4 33  1  0
 11 34  1  0
 12 35  1  0
 14 36  1  0
 18 37  1  0
 18 38  1  0
 18 39  1  0
 19 40  1  0
 19 41  1  0
 23 42  1  0
 23 43  1  0
 24 44  1  0
 24 45  1  0
 24 46  1  0
M  END
> <Name>
ZINC05264777

> <reference>
BDB50272062

> <quality>
0.829

> <status>
decoy

$$$$
ZINC21261948
  SciTegic06061311253D

 38 40  0  0  0  0            999 V2000
   -5.3560   -2.0159    3.8162 C   0  0
   -4.2451   -1.5985    2.9796 O   0  0
   -4.4291   -1.6542    1.6444 C   0  0
   -5.4898   -2.0413    1.1924 O   0  0
   -3.3516   -1.2486    0.7390 C   0  0
   -3.4046   -1.2557   -0.6264 C   0  0
   -2.1606   -0.7922   -1.0806 C   0  0
   -1.4117   -0.5257    0.0127 C   0  0
   -2.1308   -0.8069    1.1068 O   0  0
    0.0021   -0.0041    0.0020 C   0  0
   -0.0225    1.8057    0.0120 S   0  0
    1.7084    2.1353   -0.0028 C   0  0
    2.3006    3.3655   -0.0018 N   0  0
    3.6474    3.1283   -0.0151 C   0  0
    3.8134    1.8361   -0.0327 N   0  0
    2.6726    1.2444   -0.0169 N   0  5
    4.7376    4.1687   -0.0103 C   0  0
    4.1521    5.4722   -0.0016 O   0  0
    5.0039    6.5313    0.0036 C   0  0
    6.3749    6.3199    0.0063 C   0  0
    7.2391    7.3977    0.0068 C   0  0
    6.7380    8.6874    0.0153 C   0  0
    5.3707    8.9003    0.0180 C   0  0
    4.5034    7.8251    0.0122 C   0  0
    7.8259   10.0402    0.0221 Cl  0  0
   -5.5939   -3.0489    3.5225 H   0  0
   -6.2095   -1.3802    3.5377 H   0  0
   -5.1291   -1.9420    4.8900 H   0  0
   -4.2573   -1.5649   -1.2488 H   0  0
   -1.8526   -0.6689   -2.1294 H   0  0
    0.5341   -0.3679    0.8934 H   0  0
    0.5179   -0.3580   -0.9028 H   0  0
    5.3618    4.0417    0.8865 H   0  0
    5.3602    4.0532   -0.9098 H   0  0
    6.7737    5.2947    0.0080 H   0  0
    8.3263    7.2305    0.0004 H   0  0
    4.9742    9.9263    0.0248 H   0  0
    3.4166    7.9947    0.0144 H   0  0
  1  2  1  0
  2  3  1  0
  3  4  2  0
  3  5  1  0
  5  9  1  0
  5  6  2  0
  6  7  1  0
  7  8  2  0
  8  9  1  0
  8 10  1  0
 10 11  1  0
 11 12  1  0
 12 13  2  0
 12 16  1  0
 13 14  1  0
 14 17  1  0
 14 15  2  0
 15 16  1  0
 17 18  1  0
 18 19  1  0
 19 24  2  0
 19 20  1  0
 20 21  2  0
 21 22  1  0
 22 23  2  0
 22 25  1  0
 23 24  1  0
  1 26  1  0
  1 27  1  0
  1 28  1  0
  6 29  1  0
  7 30  1  0
 10 31  1  0
 10 32  1  0
 17 33  1  0
 17 34  1  0
 20 35  1  0
 21 36  1  0
 23 37  1  0
 24 38  1  0
M  CHG  1  16  -1
M  END
> <Name>
ZINC21261948

> <reference>
BDB50272062

> <quality>
0.813

> <status>
decoy

$$$$
ZINC23571699
  SciTegic06061311253D

 47 49  0  0  0  0            999 V2000
   14.6681    0.7581   -5.0230 C   0  0
   13.2929    0.8397   -4.3572 C   0  0
   12.3726    1.4814   -5.2422 O   0  0
   11.0982    1.6346   -4.8009 C   0  0
   10.1478    2.2518   -5.6118 C   0  0
    8.8611    2.3857   -5.1181 C   0  0
    8.5967    1.8945   -3.8403 C   0  0
    9.5645    1.3270   -3.1401 N   0  0
   10.7558    1.1986   -3.6000 N   0  0
    7.3116    2.0070   -3.2977 N   0  0
    6.7891    1.2158   -2.3430 C   0  0
    5.5046    1.6600   -2.0969 C   0  0
    5.2770    2.7686   -2.9445 C   0  0
    6.3552    2.9651   -3.6519 N   0  0
    4.5528    1.0898   -1.1285 C   0  0
    4.8727    0.1300   -0.4552 O   0  0
    3.3272    1.6323   -0.9890 O   0  0
    2.4415    1.0185   -0.0158 C   0  0
    1.1263    1.7542    0.0007 C   0  0
   -0.0126    1.0758    0.0080 C   0  0
   -1.3026    1.7974    0.0180 C   0  0
   -1.3249    3.1925    0.0315 C   0  0
   -2.5324    3.8601    0.0345 C   0  0
   -3.7192    3.1492    0.0367 C   0  0
   -3.7039    1.7659    0.0292 C   0  0
   -2.5031    1.0863    0.0198 C   0  0
    7.4772    0.0568   -1.6691 C   0  0
   15.0268    1.7726   -5.2514 H   0  0
   14.5917    0.1785   -5.9548 H   0  0
   15.3771    0.2642   -4.3422 H   0  0
   12.9348   -0.1752   -4.1295 H   0  0
   13.3692    1.4193   -3.4254 H   0  0
   10.4117    2.6214   -6.6137 H   0  0
    8.0717    2.8649   -5.7157 H   0  0
    4.3522    3.3618   -2.9980 H   0  0
    2.9010    1.0680    0.9824 H   0  0
    2.2693   -0.0332   -0.2885 H   0  0
    1.1114    2.8541    0.0067 H   0  0
    0.0024   -0.0241    0.0066 H   0  0
   -0.3819    3.7588    0.0397 H   0  0
   -2.5514    4.9599    0.0351 H   0  0
   -4.6792    3.6862    0.0444 H   0  0
   -4.6511    1.2066    0.0307 H   0  0
   -2.4923   -0.0136    0.0137 H   0  0
    8.3999    0.5172   -1.2861 H   0  0
    7.7839   -0.5669   -2.5217 H   0  0
    6.8949   -0.4814   -0.9066 H   0  0
  1  2  1  0
  2  3  1  0
  3  4  1  0
  4  9  2  0
  4  5  1  0
  5  6  2  0
  6  7  1  0
  7  8  2  0
  7 10  1  0
  8  9  1  0
 10 14  1  0
 10 11  1  0
 11 12  2  0
 11 27  1  0
 12 13  1  0
 12 15  1  0
 13 14  2  0
 15 16  2  0
 15 17  1  0
 17 18  1  0
 18 19  1  0
 19 20  2  0
 20 21  1  0
 21 26  2  0
 21 22  1  0
 22 23  2  0
 23 24  1  0
 24 25  2  0
 25 26  1  0
  1 28  1  0
  1 29  1  0
  1 30  1  0
  2 31  1  0
  2 32  1  0
  5 33  1  0
  6 34  1  0
 13 35  1  0
 18 36  1  0
 18 37  1  0
 19 38  1  0
 20 39  1  0
 22 40  1  0
 23 41  1  0
 24 42  1  0
 25 43  1  0
 26 44  1  0
 27 45  1  0
 27 46  1  0
 27 47  1  0
M  END
> <Name>
ZINC23571699

> <reference>
BDB50272062

> <quality>
0.802

> <status>
decoy

$$$$
ZINC11204897
  SciTegic06061311253D

 45 46  0  0  0  0            999 V2000
    7.3627   -7.2672   -0.1064 C   0  0
    6.0773   -7.8913   -0.0979 O   0  0
    4.9927   -7.0710   -0.0836 C   0  0
    5.1646   -5.7000   -0.0779 C   0  0
    4.0477   -4.8565   -0.0627 C   0  0
    2.7604   -5.4057   -0.0475 C   0  0
    2.5963   -6.7776   -0.0592 C   0  0
    3.7101   -7.6138   -0.0743 C   0  0
    3.5449   -8.9628   -0.0796 O   0  0
    3.4780   -9.6132    1.1911 C   0  0
    1.3458   -7.3122   -0.0497 O   0  0
    0.2489   -6.3964   -0.0344 C   0  0
    4.2263   -3.3979   -0.0565 C   0  0
    3.1471   -2.5852   -0.0419 C   0  0
    3.3194   -1.1780   -0.0360 C   0  0
    4.4390   -0.7023   -0.0441 O   0  0
    2.2416   -0.3664   -0.0213 O   0  0
    2.4893    1.0410   -0.0161 C   0  0
    1.1771    1.7819    0.0004 C   0  0
   -0.0126    1.0758    0.0080 C   0  0
   -1.2174    1.7473    0.0173 C   0  0
   -1.2360    3.1437    0.0298 C   0  0
   -0.0332    3.8519    0.0221 C   0  0
    1.1673    3.1674    0.0075 C   0  0
    2.3330    3.8503   -0.0004 F   0  0
   -2.4839    3.8460    0.0446 C   0  0
   -3.4738    4.4031    0.0563 N   0  0
    7.4005   -6.6249    0.7858 H   0  0
    7.3842   -6.6155   -0.9923 H   0  0
    8.1885   -7.9938   -0.1178 H   0  0
    6.1779   -5.2720   -0.0853 H   0  0
    1.8804   -4.7460   -0.0263 H   0  0
    2.6451   -9.1440    1.7352 H   0  0
    4.4101   -9.3601    1.7176 H   0  0
    3.3439  -10.7016    1.1054 H   0  0
    0.3675   -5.7569   -0.9215 H   0  0
    0.3849   -5.7659    0.8566 H   0  0
   -0.7278   -6.9024   -0.0274 H   0  0
    5.2387   -2.9677   -0.0637 H   0  0
    2.1347   -3.0154   -0.0346 H   0  0
    3.0716    1.3077    0.8782 H   0  0
    3.0547    1.3183   -0.9180 H   0  0
    0.0023   -0.0241    0.0066 H   0  0
   -2.1621    1.1838    0.0149 H   0  0
   -0.0408    4.9519    0.0276 H   0  0
  1  2  1  0
  2  3  1  0
  3  8  2  0
  3  4  1  0
  4  5  2  0
  5  6  1  0
  5 13  1  0
  6  7  2  0
  7  8  1  0
  7 11  1  0
  8  9  1  0
  9 10  1  0
 11 12  1  0
 13 14  2  0
 14 15  1  0
 15 16  2  0
 15 17  1  0
 17 18  1  0
 18 19  1  0
 19 24  2  0
 19 20  1  0
 20 21  2  0
 21 22  1  0
 22 23  2  0
 22 26  1  0
 23 24  1  0
 24 25  1  0
 26 27  3  0
  1 28  1  0
  1 29  1  0
  1 30  1  0
  4 31  1  0
  6 32  1  0
 10 33  1  0
 10 34  1  0
 10 35  1  0
 12 36  1  0
 12 37  1  0
 12 38  1  0
 13 39  1  0
 14 40  1  0
 18 41  1  0
 18 42  1  0
 20 43  1  0
 21 44  1  0
 23 45  1  0
M  END
> <Name>
ZINC11204897

> <reference>
BDB50272062

> <quality>
0.798

> <status>
decoy

$$$$
ZINC03875564
  SciTegic06061311253D

 52 54  0  0  1  0            999 V2000
   -3.1685    7.6494    6.5496 C   0  0
   -3.0397    6.4248    7.4577 C   0  0
   -2.1131    5.3989    6.8020 C   0  0
   -1.9908    4.2367    7.6638 O   0  0
   -1.2068    3.2369    7.2309 C   0  0
   -0.6414    3.3297    6.1672 O   0  0
   -1.0317    1.9985    8.0717 C   0  0  1  0  0  0
   -2.3757    1.3550    8.2942 C   0  0
   -3.4493    2.1891    8.5844 C   0  0
   -4.7090    1.6644    8.8033 C   0  0
   -4.9016    0.2862    8.7342 C   0  0
   -3.8309   -0.5387    8.4455 C   0  0
   -2.5667   -0.0062    8.2236 C   0  0
   -1.4490   -0.9660    7.9086 C   0  0
   -0.0916   -0.2977    8.1171 C   0  0  2  0  0  0
   -0.0870    1.0343    7.3575 C   0  0  2  0  0  0
    1.3072    1.6062    7.3439 C   0  0
    1.7084    2.2424    8.2894 O   0  0
    2.1033    1.4087    6.2814 O   0  0
    3.4334    1.9885    6.3374 C   0  0
    4.1875    1.6605    5.0472 C   0  0
    5.5889    2.2714    5.1062 C   0  0
    1.0171   -1.2030    7.5768 C   0  0
   -6.2158    0.0166    8.9862 O   0  0
   -6.9064    1.2670    8.8057 C   0  0
   -5.9028    2.2573    9.0977 O   0  0
   -3.5878    7.3452    5.5792 H   0  0
   -2.1764    8.0986    6.3950 H   0  0
   -3.8346    8.3874    7.0204 H   0  0
   -2.6201    6.7299    8.4277 H   0  0
   -4.0318    5.9756    7.6123 H   0  0
   -2.5324    5.0930    5.8321 H   0  0
   -1.1200    5.8461    6.6476 H   0  0
   -0.5984    2.2618    9.0479 H   0  0
   -3.2948    3.2768    8.6403 H   0  0
   -3.9809   -1.6271    8.3909 H   0  0
   -1.5268   -1.8437    8.5670 H   0  0
   -1.5348   -1.2952    6.8625 H   0  0
    0.0837   -0.1229    9.1889 H   0  0
   -0.4172    0.8796    6.3197 H   0  0
    3.3534    3.0801    6.4473 H   0  0
    3.9801    1.5726    7.1966 H   0  0
    4.2683    0.5690    4.9369 H   0  0
    3.6428    2.0767    4.1869 H   0  0
    6.1355    1.8554    5.9654 H   0  0
    5.5098    3.3630    5.2164 H   0  0
    6.1316    2.0359    4.1788 H   0  0
    0.8561   -1.3776    6.5028 H   0  0
    0.9967   -2.1648    8.1102 H   0  0
    1.9940   -0.7204    7.7276 H   0  0
   -7.7395    1.3490    9.5193 H   0  0
   -7.2467    1.3668    7.7644 H   0  0
  1  2  1  0
  2  3  1  0
  3  4  1  0
  4  5  1  0
  5  6  2  0
  5  7  1  0
  7 16  1  0
  7  8  1  0
  8 13  2  0
  8  9  1  0
  9 10  2  0
 10 26  1  0
 10 11  1  0
 11 12  2  0
 11 24  1  0
 12 13  1  0
 13 14  1  0
 14 15  1  0
 15 16  1  0
 15 23  1  0
 16 17  1  0
 17 18  2  0
 17 19  1  0
 19 20  1  0
 20 21  1  0
 21 22  1  0
 24 25  1  0
 25 26  1  0
  1 27  1  0
  1 28  1  0
  1 29  1  0
  2 30  1  0
  2 31  1  0
  3 32  1  0
  3 33  1  0
  7 34  1  0
  9 35  1  0
 12 36  1  0
 14 37  1  0
 14 38  1  0
 15 39  1  0
 16 40  1  0
 20 41  1  0
 20 42  1  0
 21 43  1  0
 21 44  1  0
 22 45  1  0
 22 46  1  0
 22 47  1  0
 23 48  1  0
 23 49  1  0
 23 50  1  0
 25 51  1  0
 25 52  1  0
M  END
> <Name>
ZINC03875564

> <reference>
BDB50272062

> <quality>
0.794

> <status>
decoy

$$$$
ZINC07348149
  SciTegic06061311253D

 45 47  0  0  0  0            999 V2000
   10.1357    6.9859   -0.2995 C   0  0
    8.8952    6.7231    0.5147 C   0  0
    8.2896    7.7602    1.2016 C   0  0
    7.1537    7.5262    1.9488 C   0  0
    6.6159    6.2400    2.0113 C   0  0
    7.2352    5.1971    1.3211 C   0  0
    8.3671    5.4456    0.5725 C   0  0
    5.3987    5.9821    2.8102 C   0  0
    4.7424    4.8462    3.0007 N   0  0
    3.6636    4.7993    3.7464 C   0  0
    3.2073    5.9293    4.3494 C   0  0
    4.4194    7.1170    3.7848 S   0  0
    2.9354    3.4942    3.9391 C   0  0
    1.6770    3.3096    2.6513 S   0  0
    1.0013    1.7469    3.1054 C   0  0
    1.3847    1.0180    4.1137 N   0  0
    0.6010   -0.1439    4.1320 N   0  0
   -0.2613   -0.0655    3.0975 C   0  0
   -1.1031   -0.8936    2.7978 O   0  0
   -0.0203    1.0939    2.4537 N   0  0
   -0.7288    1.5792    1.2668 C   0  0
   -0.0127    1.0858    0.0080 C   0  0
   -0.7527    1.5927   -1.2315 C   0  0
   -0.0838    1.1318   -2.4072 O   0  0
   -0.6975    1.5519   -3.6275 C   0  0
    9.8889    6.6460   -1.3162 H   0  0
   10.8928    6.2951    0.1000 H   0  0
   10.4687    8.0340   -0.2758 H   0  0
    8.7147    8.7735    1.1519 H   0  0
    6.6730    8.3517    2.4941 H   0  0
    6.8217    4.1791    1.3738 H   0  0
    8.8508    4.6263    0.0204 H   0  0
    2.3345    6.0731    5.0033 H   0  0
    3.6512    2.6615    3.8735 H   0  0
    2.4519    3.4852    4.9271 H   0  0
    0.6707   -0.9157    4.8105 H   0  0
   -1.7606    1.1981    1.2742 H   0  0
   -0.7441    2.6791    1.2717 H   0  0
    1.0191    1.4669   -0.0002 H   0  0
    0.0025   -0.0141    0.0008 H   0  0
   -1.7845    1.2116   -1.2241 H   0  0
   -0.7680    2.6926   -1.2266 H   0  0
   -0.7223    2.6516   -3.6247 H   0  0
   -1.7329    1.1805   -3.6230 H   0  0
   -0.1513    1.1756   -4.5051 H   0  0
  1  2  1  0
  2  7  2  0
  2  3  1  0
  3  4  2  0
  4  5  1  0
  5  6  2  0
  5  8  1  0
  6  7  1  0
  8 12  1  0
  8  9  2  0
  9 10  1  0
 10 11  2  0
 10 13  1  0
 11 12  1  0
 13 14  1  0
 14 15  1  0
 15 20  1  0
 15 16  2  0
 16 17  1  0
 17 18  1  0
 18 19  2  0
 18 20  1  0
 20 21  1  0
 21 22  1  0
 22 23  1  0
 23 24  1  0
 24 25  1  0
  1 26  1  0
  1 27  1  0
  1 28  1  0
  3 29  1  0
  4 30  1  0
  6 31  1  0
  7 32  1  0
 11 33  1  0
 13 34  1  0
 13 35  1  0
 17 36  1  0
 21 37  1  0
 21 38  1  0
 22 39  1  0
 22 40  1  0
 23 41  1  0
 23 42  1  0
 25 43  1  0
 25 44  1  0
 25 45  1  0
M  END
> <Name>
ZINC07348149

> <reference>
BDB50272062

> <quality>
0.788

> <status>
decoy

$$$$
ZINC26051800
  SciTegic06061311253D

 47 49  0  0  0  0            999 V2000
   -1.3754   -2.2895   -2.5636 C   0  0
   -1.4218   -2.7983   -1.1458 C   0  0
   -1.3046   -4.0845   -0.7768 C   0  0
   -1.4145   -4.1070    0.6886 C   0  0
   -1.5876   -2.7881    1.0750 C   0  0
   -1.5858   -2.0243   -0.0331 N   0  0
   -1.7439   -0.5679   -0.0442 C   0  0
   -0.3691    0.0951    0.0619 C   0  0
   -0.5233    1.5158    0.0510 O   0  0
    0.7079    2.2348    0.1461 C   0  0
   -1.7493   -2.2945    2.4896 C   0  0
   -1.3554   -5.2449    1.5333 C   0  0
   -0.8388   -6.4333    1.0558 C   0  0
   -0.2295   -6.4801   -0.2393 C   0  0
    0.2538   -6.5172   -1.2667 N   0  0
   -0.9141   -7.6494    1.8764 C   0  0
   -1.4318   -7.6096    2.9769 O   0  5
   -0.4099   -8.8091    1.4104 N   0  0
   -0.4811   -9.9588    2.1863 C   0  0
   -0.0547  -11.1752    1.9063 N   0  0
   -0.1997  -12.1646    2.7661 C   0  0
   -0.8097  -11.9083    3.9491 C   0  0
   -1.1612  -10.1655    3.7706 S   0  0
    0.2959  -13.5496    2.4384 C   0  0  2  0  0  0
    0.4372  -14.5413    3.5949 C   0  0
    1.6859  -13.9406    2.9444 C   0  0
   -0.5739   -1.5369   -2.5271 H   0  0
   -2.3162   -1.7264   -2.6521 H   0  0
   -1.2366   -3.0497   -3.3464 H   0  0
   -1.1559   -4.9495   -1.4399 H   0  0
   -2.2281   -0.2586   -0.9822 H   0  0
   -2.3659   -0.2589    0.8088 H   0  0
    0.1155   -0.2134    1.0000 H   0  0
    0.2541   -0.2119   -0.7910 H   0  0
    1.3385    1.9260   -0.7007 H   0  0
    1.2017    1.9248    1.0789 H   0  0
    0.5429    3.3223    0.1341 H   0  0
   -0.8579   -2.7030    2.9882 H   0  0
   -2.5971   -2.8924    2.8554 H   0  0
   -1.8773   -1.2096    2.6188 H   0  0
   -1.7211   -5.1808    2.5688 H   0  0
   -1.0281  -12.5861    4.7875 H   0  0
   -0.2079  -13.5611    1.4606 H   0  0
    0.2685  -15.5762    3.2623 H   0  0
    0.2191  -14.0658    4.5626 H   0  0
    2.1249  -13.1498    3.5705 H   0  0
    2.1733  -14.6593    2.2691 H   0  0
  1  2  1  0
  2  6  1  0
  2  3  2  0
  3  4  1  0
  4  5  2  0
  4 12  1  0
  5  6  1  0
  5 11  1  0
  6  7  1  0
  7  8  1  0
  8  9  1  0
  9 10  1  0
 12 13  2  0
 13 14  1  0
 13 16  1  0
 14 15  3  0
 16 17  1  0
 16 18  2  0
 18 19  1  0
 19 23  1  0
 19 20  2  0
 20 21  1  0
 21 22  2  0
 21 24  1  0
 22 23  1  0
 24 26  1  0
 24 25  1  0
 25 26  1  0
  1 27  1  0
  1 28  1  0
  1 29  1  0
  3 30  1  0
  7 31  1  0
  7 32  1  0
  8 33  1  0
  8 34  1  0
 10 35  1  0
 10 36  1  0
 10 37  1  0
 11 38  1  0
 11 39  1  0
 11 40  1  0
 12 41  1  0
 22 42  1  0
 24 43  1  0
 25 44  1  0
 25 45  1  0
 26 46  1  0
 26 47  1  0
M  CHG  1  17  -1
M  END
> <Name>
ZINC26051800

> <reference>
BDB50272062

> <quality>
0.784

> <status>
decoy

$$$$
ZINC01972828
  SciTegic06061311253D

 52 54  0  0  1  0            999 V2000
   -1.7007    3.6808   -4.8872 C   0  0
   -0.9069    3.2112   -3.6664 C   0  0
   -0.8867    1.6818   -3.6286 C   0  0  2  0  0  0
   -0.2114    1.2195   -2.3631 C   0  0
    0.7832    0.5362   -2.4240 O   0  0
   -0.7150    1.5668   -1.1683 O   0  0
   -0.0127    1.0858    0.0080 C   0  0
   -0.7288    1.5792    1.2668 C   0  0
   -2.0295    0.9914    1.3363 O   0  0
   -2.7865    1.3887    2.4813 C   0  0
   -4.1536    0.7023    2.4521 C   0  0
   -0.1499    1.1743   -4.7887 N   0  0
    1.1517    1.5239   -4.9549 C   0  0
    1.8427    1.0927   -5.9761 N   0  0
    1.2912    0.2952   -6.8867 C   0  0
   -0.0468   -0.1204   -6.7997 C   0  0
   -0.7754    0.3666   -5.6652 C   0  0
   -1.9428    0.0579   -5.4992 O   0  0
   -0.5162   -0.9965   -7.8722 C   0  0
    0.3746   -1.3182   -8.8339 C   0  0
    1.8692   -0.4839   -8.3730 S   0  0
    0.1437   -2.1911  -10.0294 C   0  0
   -1.3698   -2.3774  -10.2084 C   0  0  2  0  0  0
   -1.9835   -2.7444   -8.8541 C   0  0
   -1.9439   -1.5339   -7.9207 C   0  0
   -1.6334   -3.5012  -11.2126 C   0  0
   -2.7317    3.3027   -4.8231 H   0  0
   -1.2268    3.2984   -5.8033 H   0  0
   -1.7156    4.7803   -4.9150 H   0  0
    0.1240    3.5895   -3.7315 H   0  0
   -1.3807    3.5936   -2.7503 H   0  0
   -1.9183    1.3007   -3.6540 H   0  0
    1.0194    1.4662    0.0013 H   0  0
    0.0018   -0.0141    0.0024 H   0  0
   -0.1486    1.2907    2.1557 H   0  0
   -0.8237    2.6745    1.2305 H   0  0
   -2.9247    2.4799    2.4703 H   0  0
   -2.2494    1.0962    3.3956 H   0  0
   -4.0174   -0.3892    2.4642 H   0  0
   -4.6920    0.9939    1.5383 H   0  0
   -4.7369    1.0077    3.3333 H   0  0
    1.6328    2.1820   -4.2163 H   0  0
    0.5644   -1.7103  -10.9249 H   0  0
    0.6192   -3.1702   -9.8707 H   0  0
   -1.8201   -1.4469  -10.5843 H   0  0
   -3.0273   -3.0599   -8.9989 H   0  0
   -1.4130   -3.5706   -8.4047 H   0  0
   -2.2578   -1.8376   -6.9111 H   0  0
   -2.6195   -0.7538   -8.3016 H   0  0
   -1.1909   -4.4369  -10.8402 H   0  0
   -1.1795   -3.2420  -12.1805 H   0  0
   -2.7178   -3.6342  -11.3404 H   0  0
  1  2  1  0
  2  3  1  0
  3  4  1  0
  3 12  1  0
  4  5  2  0
  4  6  1  0
  6  7  1  0
  7  8  1  0
  8  9  1  0
  9 10  1  0
 10 11  1  0
 12 17  1  0
 12 13  1  0
 13 14  2  0
 14 15  1  0
 15 21  1  0
 15 16  2  0
 16 17  1  0
 16 19  1  0
 17 18  2  0
 19 25  1  0
 19 20  2  0
 20 21  1  0
 20 22  1  0
 22 23  1  0
 23 24  1  0
 23 26  1  0
 24 25  1  0
  1 27  1  0
  1 28  1  0
  1 29  1  0
  2 30  1  0
  2 31  1  0
  3 32  1  0
  7 33  1  0
  7 34  1  0
  8 35  1  0
  8 36  1  0
 10 37  1  0
 10 38  1  0
 11 39  1  0
 11 40  1  0
 11 41  1  0
 13 42  1  0
 22 43  1  0
 22 44  1  0
 23 45  1  0
 24 46  1  0
 24 47  1  0
 25 48  1  0
 25 49  1  0
 26 50  1  0
 26 51  1  0
 26 52  1  0
M  END
> <Name>
ZINC01972828

> <reference>
BDB50272062

> <quality>
0.779

> <status>
decoy

$$$$
ZINC03485856
  SciTegic06061311253D

 46 48  0  0  0  0            999 V2000
   -6.6485    4.0667    7.6677 C   0  0
   -5.5296    4.8849    8.3153 C   0  0  1  0  0  0
   -5.9724    5.3433    9.7062 C   0  0
   -4.2725    4.0216    8.4391 C   0  0
   -3.7580    3.6667    7.0425 C   0  0
   -2.5839    2.8604    7.1581 O   0  0
   -1.9978    2.4564    6.0028 C   0  0
   -0.8524    1.6698    6.0449 C   0  0
   -0.2546    1.2578    4.8751 C   0  0
   -0.8010    1.6316    3.6439 C   0  0
   -1.9496    2.4276    3.6061 C   0  0
   -2.5447    2.8301    4.7806 C   0  0
   -0.1641    1.1926    2.3884 C   0  0
    0.8371    0.5050    2.4231 O   0  0
   -0.6923    1.5541    1.2026 O   0  0
   -0.0127    1.0858    0.0080 C   0  0
   -0.7416    1.5850   -1.2129 C   0  0
   -0.1392    2.4782   -2.0732 C   0  0
   -0.8279    2.9251   -3.2011 C   0  0
   -0.2975    3.7125   -3.9690 O   0  0
   -2.0990    2.4853   -3.4424 N   0  0
   -2.9035    2.8364   -4.4997 C   0  0
   -4.1326    2.3364   -4.6249 C   0  0
   -4.2465    1.2819   -3.1880 S   0  0
   -2.6226    1.6038   -2.5345 C   0  0
   -1.9798    1.1759   -1.4766 N   0  0
   -7.5527    4.6867    7.5780 H   0  0
   -6.8682    3.1868    8.2903 H   0  0
   -6.3308    3.7368    6.6676 H   0  0
   -5.3106    5.7643    7.6919 H   0  0
   -6.1915    4.4645   10.3305 H   0  0
   -6.8760    5.9644    9.6183 H   0  0
   -5.1683    5.9317   10.1724 H   0  0
   -3.4968    4.5793    8.9843 H   0  0
   -4.5130    3.0980    8.9861 H   0  0
   -4.5332    3.1086    6.4969 H   0  0
   -3.5159    4.5892    6.4943 H   0  0
   -0.4231    1.3761    7.0142 H   0  0
    0.6517    0.6354    4.9092 H   0  0
   -2.3773    2.7319    2.6394 H   0  0
   -3.4541    3.4482    4.7518 H   0  0
    1.0191    1.4669   -0.0003 H   0  0
    0.0026   -0.0141    0.0008 H   0  0
    0.8807    2.8372   -1.8710 H   0  0
   -2.5269    3.5417   -5.2551 H   0  0
   -4.8813    2.5242   -5.4086 H   0  0
  1  2  1  0
  2  3  1  0
  2  4  1  0
  4  5  1  0
  5  6  1  0
  6  7  1  0
  7 12  2  0
  7  8  1  0
  8  9  2  0
  9 10  1  0
 10 11  2  0
 10 13  1  0
 11 12  1  0
 13 14  2  0
 13 15  1  0
 15 16  1  0
 16 17  1  0
 17 26  1  0
 17 18  2  0
 18 19  1  0
 19 20  2  0
 19 21  1  0
 21 25  1  0
 21 22  1  0
 22 23  2  0
 23 24  1  0
 24 25  1  0
 25 26  2  0
  1 27  1  0
  1 28  1  0
  1 29  1  0
  2 30  1  0
  3 31  1  0
  3 32  1  0
  3 33  1  0
  4 34  1  0
  4 35  1  0
  5 36  1  0
  5 37  1  0
  8 38  1  0
  9 39  1  0
 11 40  1  0
 12 41  1  0
 16 42  1  0
 16 43  1  0
 18 44  1  0
 22 45  1  0
 23 46  1  0
M  END
> <Name>
ZINC03485856

> <reference>
BDB50272062

> <quality>
0.776

> <status>
decoy

$$$$
ZINC27533544
  SciTegic06061311253D

 42 43  0  0  1  0            999 V2000
    2.7355   -0.8758    0.1704 C   0  0
    2.0221    0.4511    0.2102 C   0  0
    0.7472    0.6250    0.0718 N   0  0
    0.4810    1.9977    0.1704 N   0  0
    1.6603    2.6215    0.3733 C   0  0
    1.8963    4.3066    0.5620 S   0  0
    2.6184    1.6735    0.3994 N   0  0
    4.0512    1.9075    0.5959 C   0  0
    4.7132    2.1217   -0.7408 C   0  0
    5.4164    3.2056   -0.9573 C   0  0
   -0.8330    2.6371    0.0662 C   0  0
   -1.4445    2.7196    1.3993 N   0  0
   -1.7478    1.3811    1.9231 C   0  0
   -2.6487    3.5607    1.3749 C   0  0
   -3.0286    3.9350    2.7844 C   0  0
   -4.1095    3.3259    3.3940 C   0  0
   -4.4548    3.6653    4.6886 C   0  0
   -3.7258    4.6216    5.3710 C   0  0
   -2.6485    5.2353    4.7607 C   0  0
   -2.2991    4.8922    3.4665 C   0  0
   -0.9456    5.6622    2.6993 Cl  0  0
   -5.6091    3.0091    5.3425 N   0  0
   -5.9167    3.3117    6.4816 O   0  0
   -6.2515    2.1667    4.7416 O   0  0
    3.2828   -0.8854    1.1245 H   0  0
    3.4940   -0.7198   -0.6109 H   0  0
    2.1047   -1.7624    0.0090 H   0  0
    4.5017    1.0351    1.0917 H   0  0
    4.1945    2.8000    1.2227 H   0  0
    4.6060    1.3679   -1.5347 H   0  0
    5.5236    3.9594   -0.1634 H   0  0
    5.8996    3.3620   -1.9330 H   0  0
   -0.7163    3.6501   -0.3464 H   0  0
   -1.4794    2.0433   -0.5968 H   0  0
   -0.8141    0.8027    1.9826 H   0  0
   -2.4398    0.8774    1.2322 H   0  0
   -2.2047    1.4583    2.9207 H   0  0
   -3.4757    3.0055    0.9082 H   0  0
   -2.4468    4.4736    0.7954 H   0  0
   -4.6949    2.5710    2.8487 H   0  0
   -4.0034    4.8940    6.4000 H   0  0
   -2.0688    5.9964    5.3036 H   0  0
  1  2  1  0
  2  7  1  0
  2  3  2  0
  3  4  1  0
  4  5  1  0
  4 11  1  0
  5  6  2  0
  5  7  1  0
  7  8  1  0
  8  9  1  0
  9 10  2  0
 11 12  1  0
 12 13  1  0
 12 14  1  0
 14 15  1  0
 15 20  2  0
 15 16  1  0
 16 17  2  0
 17 18  1  0
 17 22  1  0
 18 19  2  0
 19 20  1  0
 20 21  1  0
 22 23  2  0
 22 24  2  0
  1 25  1  0
  1 26  1  0
  1 27  1  0
  8 28  1  0
  8 29  1  0
  9 30  1  0
 10 31  1  0
 10 32  1  0
 11 33  1  0
 11 34  1  0
 13 35  1  0
 13 36  1  0
 13 37  1  0
 14 38  1  0
 14 39  1  0
 16 40  1  0
 18 41  1  0
 19 42  1  0
M  END
> <Name>
ZINC27533544

> <reference>
BDB50272062

> <quality>
0.776

> <status>
decoy

$$$$
ZINC05991764
  SciTegic06061311253D

 47 49  0  0  0  0            999 V2000
   -8.8031   -7.5339   -1.8443 C   0  0
   -7.4751   -6.8421   -1.6743 C   0  0
   -6.9992   -6.0079   -2.6690 C   0  0
   -5.7822   -5.3725   -2.5156 C   0  0
   -5.0374   -5.5720   -1.3623 C   0  0
   -5.5144   -6.4140   -0.3682 C   0  0
   -6.7349   -7.0422   -0.5238 C   0  0
   -3.8398   -4.9481   -1.2090 O   0  0
   -3.1276   -5.2001    0.0040 C   0  0
   -1.8131   -4.4171   -0.0044 C   0  0
   -2.0978   -2.9933    0.0060 O   0  0
   -1.0445   -2.1612    0.0004 C   0  0
    0.0781   -2.6078   -0.0127 O   0  0
   -1.2622   -0.6701    0.0105 C   0  0
    0.0021   -0.0041    0.0020 O   0  0
   -0.0163    1.3533    0.0095 C   0  0
   -1.2359    2.0278    0.0190 C   0  0
   -1.2710    3.3919    0.0324 C   0  0
   -0.0748    4.1186    0.0249 C   0  0
   -0.0822    5.5829    0.0333 C   0  0
    1.1118    6.2308    0.0259 C   0  0
    2.3115    5.4901    0.0104 C   0  0
    3.3751    6.0835    0.0042 O   0  0
    2.3114    4.1479    0.0027 O   0  0
    1.1597    3.4431    0.0095 C   0  0
    1.1771    2.0564    0.0019 C   0  0
   -1.3791    6.3502    0.0504 C   0  0
   -9.3977   -7.2308   -0.9699 H   0  0
   -8.5837   -8.6060   -1.7328 H   0  0
   -9.3059   -7.3039   -2.7953 H   0  0
   -7.5902   -5.8501   -3.5833 H   0  0
   -5.4040   -4.7089   -3.3072 H   0  0
   -4.9214   -6.5812    0.5430 H   0  0
   -7.1182   -7.7022    0.2684 H   0  0
   -2.9123   -6.2756    0.0875 H   0  0
   -3.7385   -4.8807    0.8612 H   0  0
   -1.2243   -4.6793    0.8870 H   0  0
   -1.2406   -4.6692   -0.9092 H   0  0
   -1.8363   -0.3772   -0.8809 H   0  0
   -1.8194   -0.3859    0.9153 H   0  0
   -2.1762    1.4569    0.0157 H   0  0
   -2.2365    3.9188    0.0490 H   0  0
    1.1426    7.3304    0.0320 H   0  0
    2.1355    1.5166   -0.0101 H   0  0
   -1.9105    5.9725    0.9363 H   0  0
   -1.9279    5.9825   -0.8292 H   0  0
   -1.2636    7.4441    0.0555 H   0  0
  1  2  1  0
  2  7  2  0
  2  3  1  0
  3  4  2  0
  4  5  1  0
  5  6  2  0
  5  8  1  0
  6  7  1  0
  8  9  1  0
  9 10  1  0
 10 11  1  0
 11 12  1  0
 12 13  2  0
 12 14  1  0
 14 15  1  0
 15 16  1  0
 16 26  2  0
 16 17  1  0
 17 18  2  0
 18 19  1  0
 19 25  2  0
 19 20  1  0
 20 21  2  0
 20 27  1  0
 21 22  1  0
 22 23  2  0
 22 24  1  0
 24 25  1  0
 25 26  1  0
  1 28  1  0
  1 29  1  0
  1 30  1  0
  3 31  1  0
  4 32  1  0
  6 33  1  0
  7 34  1  0
  9 35  1  0
  9 36  1  0
 10 37  1  0
 10 38  1  0
 14 39  1  0
 14 40  1  0
 17 41  1  0
 18 42  1  0
 21 43  1  0
 26 44  1  0
 27 45  1  0
 27 46  1  0
 27 47  1  0
M  END
> <Name>
ZINC05991764

> <reference>
BDB50272062

> <quality>
0.775

> <status>
decoy

$$$$
ZINC30206588
  SciTegic06061311253D

 52 53  0  0  0  0            999 V2000
   -5.0314    4.0148    0.0461 C   0  0
   -3.7162    3.2791    0.0369 C   0  0
   -2.5291    3.9910    0.0352 C   0  0
   -1.3218    3.3252    0.0322 C   0  0
   -1.2987    1.9268    0.0187 C   0  0
   -2.5022    1.2148    0.0205 C   0  0
   -3.7017    1.8953    0.0299 C   0  0
   -4.9999    1.1301    0.0319 C   0  0
   -0.0144    1.2083    0.0087 C   0  0
    0.0021   -0.0041    0.0020 O   0  0
    1.2803    1.9795    0.0005 C   0  0
    2.4566    1.0012   -0.0160 C   0  0
    3.7513    1.7724   -0.0242 C   0  0
    3.7348    2.9851   -0.0176 O   0  0
    4.9275    1.1145   -0.0390 N   0  0
    4.9473   -0.3504   -0.0471 C   0  0
    6.1861    1.8642   -0.0470 C   0  0
    6.6312    2.1136    1.3710 C   0  0
    6.2252    3.2614    2.0284 C   0  0
    6.6250    3.4937    3.3281 C   0  0
    7.4500    2.5724    3.9765 C   0  0
    7.8602    1.4188    3.3053 C   0  0
    7.4487    1.1965    2.0076 C   0  0
    7.8863    2.8169    5.3665 C   0  0
    8.6037    2.0135    5.9281 O   0  0
    7.4887    3.9309    6.0112 O   0  0
    7.9559    4.1056    7.3748 C   0  0
   -5.5644    3.6391    0.9320 H   0  0
   -5.5718    3.6480   -0.8390 H   0  0
   -4.9274    5.1099    0.0512 H   0  0
   -2.5490    5.0908    0.0362 H   0  0
   -0.3793    3.8923    0.0404 H   0  0
   -2.4922    0.1149    0.0144 H   0  0
   -5.5484    1.4944   -0.8492 H   0  0
   -5.5405    1.4855    0.9216 H   0  0
   -4.8720    0.0376    0.0259 H   0  0
    1.3218    2.6171   -0.8949 H   0  0
    1.3397    2.6080    0.9013 H   0  0
    2.3995    0.3725   -0.9168 H   0  0
    2.4159    0.3635    0.8794 H   0  0
    4.3568   -0.6402   -0.9287 H   0  0
    4.3737   -0.6498    0.8425 H   0  0
    5.9589   -0.7823   -0.0591 H   0  0
    6.0377    2.8266   -0.5586 H   0  0
    6.9560    1.2829   -0.5755 H   0  0
    5.5822    3.9903    1.5135 H   0  0
    6.2947    4.4025    3.8524 H   0  0
    8.5100    0.6889    3.8102 H   0  0
    7.7712    0.2881    1.4776 H   0  0
    9.0548    4.0806    7.3315 H   0  0
    7.6194    3.2199    7.9335 H   0  0
    7.5896    5.0365    7.8322 H   0  0
  1  2  1  0
  2  7  2  0
  2  3  1  0
  3  4  2  0
  4  5  1  0
  5  6  2  0
  5  9  1  0
  6  7  1  0
  7  8  1  0
  9 10  2  0
  9 11  1  0
 11 12  1  0
 12 13  1  0
 13 14  2  0
 13 15  1  0
 15 16  1  0
 15 17  1  0
 17 18  1  0
 18 23  2  0
 18 19  1  0
 19 20  2  0
 20 21  1  0
 21 22  2  0
 21 24  1  0
 22 23  1  0
 24 25  2  0
 24 26  1  0
 26 27  1  0
  1 28  1  0
  1 29  1  0
  1 30  1  0
  3 31  1  0
  4 32  1  0
  6 33  1  0
  8 34  1  0
  8 35  1  0
  8 36  1  0
 11 37  1  0
 11 38  1  0
 12 39  1  0
 12 40  1  0
 16 41  1  0
 16 42  1  0
 16 43  1  0
 17 44  1  0
 17 45  1  0
 19 46  1  0
 20 47  1  0
 22 48  1  0
 23 49  1  0
 27 50  1  0
 27 51  1  0
 27 52  1  0
M  END
> <Name>
ZINC30206588

> <reference>
BDB50272062

> <quality>
0.774

> <status>
decoy

$$$$
ZINC07737062
  SciTegic06061311253D

 42 44  0  0  0  0            999 V2000
    0.7563    2.4580    0.2602 C   0  0
   -0.2018    1.5684    0.1777 C   0  0
   -1.6408    2.0132    0.1278 C   0  0
   -2.2839    1.4535   -1.0635 N   0  0
   -2.9746    0.2672   -1.1556 C   0  0
   -3.3821    0.1541   -2.3983 N   0  0
   -2.9991    1.1738   -3.0802 N   0  0
   -2.3280    2.0034   -2.3131 C   0  0
   -1.6152    3.5377   -2.8055 S   0  0
   -2.0908    3.5592   -4.5518 C   0  0
   -1.5733    4.8185   -5.1979 C   0  0
   -0.9447    5.6223   -4.5423 O   0  0
   -1.8300    5.0723   -6.6214 C   0  0
   -2.5505    4.1431   -7.3820 C   0  0
   -2.7916    4.3872   -8.7096 C   0  0
   -2.3129    5.5501   -9.3035 C   0  0
   -1.5923    6.4737   -8.5538 C   0  0
   -1.3502    6.2417   -7.2243 C   0  0
   -2.5501    5.7846  -10.6185 O   0  0
   -3.2133   -0.6978   -0.0614 C   0  0
   -2.4148   -0.6705    1.0832 C   0  0
   -2.6446   -1.5703    2.1028 C   0  0
   -3.6599   -2.5065    1.9885 C   0  0
   -4.4523   -2.5415    0.8520 C   0  0
   -4.2342   -1.6433   -0.1716 C   0  0
   -3.8777   -3.3887    2.9882 F   0  0
    0.5105    3.5297    0.2931 H   0  0
    1.8067    2.1333    0.2966 H   0  0
    0.0441    0.4967    0.1448 H   0  0
   -2.1655    1.6594    1.0275 H   0  0
   -1.6850    3.1115    0.0856 H   0  0
   -3.1873    3.5293   -4.6347 H   0  0
   -1.6606    2.6835   -5.0599 H   0  0
   -2.9224    3.2190   -6.9153 H   0  0
   -3.3647    3.6619   -9.3059 H   0  0
   -1.2159    7.3920   -9.0283 H   0  0
   -0.7801    6.9728   -6.6323 H   0  0
   -3.5349    5.7454  -10.7116 H   0  0
   -1.6038    0.0673    1.1718 H   0  0
   -2.0208   -1.5448    3.0085 H   0  0
   -5.2566   -3.2870    0.7662 H   0  0
   -4.8637   -1.6720   -1.0732 H   0  0
  1  2  2  0
  2  3  1  0
  3  4  1  0
  4  8  1  0
  4  5  1  0
  5  6  2  0
  5 20  1  0
  6  7  1  0
  7  8  2  0
  8  9  1  0
  9 10  1  0
 10 11  1  0
 11 12  2  0
 11 13  1  0
 13 18  2  0
 13 14  1  0
 14 15  2  0
 15 16  1  0
 16 17  2  0
 16 19  1  0
 17 18  1  0
 20 25  2  0
 20 21  1  0
 21 22  2  0
 22 23  1  0
 23 24  2  0
 23 26  1  0
 24 25  1  0
  1 27  1  0
  1 28  1  0
  2 29  1  0
  3 30  1  0
  3 31  1  0
 10 32  1  0
 10 33  1  0
 14 34  1  0
 15 35  1  0
 17 36  1  0
 18 37  1  0
 19 38  1  0
 21 39  1  0
 22 40  1  0
 24 41  1  0
 25 42  1  0
M  END
> <Name>
ZINC07737062

> <reference>
BDB50272062

> <quality>
0.772

> <status>
decoy

$$$$
ZINC20291414
  SciTegic06061311253D

 44 47  0  0  0  0            999 V2000
   -0.1244   -9.0541   -0.0456 C   0  0
   -1.4575   -8.5397   -0.0302 O   0  0
   -1.5971   -7.1873   -0.0212 C   0  0
   -0.4722   -6.3756   -0.0276 C   0  0
   -0.6080   -5.0033   -0.0248 C   0  0
   -1.8809   -4.4276   -0.0038 C   0  0
   -3.0137   -5.2455    0.0027 C   0  0
   -2.8694   -6.6204   -0.0061 C   0  0
   -3.9698   -7.4195    0.0006 O   0  0
   -5.2428   -6.7704    0.0167 C   0  0
   -6.3052   -7.7792    0.0218 N   0  0
   -6.1297   -9.1171    0.0130 C   0  0
   -7.3538   -9.6938    0.0226 C   0  0
   -8.3102   -8.6733    0.0378 C   0  0
   -7.6827   -7.5252    0.0430 N   0  0
   -2.0285   -2.9607    0.0055 C   0  0
   -0.9750   -2.2023   -0.0005 N   0  0
   -1.1152   -0.8084    0.0084 N   0  0
    0.0021   -0.0041    0.0020 C   0  0
    1.2376   -0.4363   -0.0121 N   0  0
    2.0751    0.6360   -0.0143 C   0  0
    3.4641    0.7741   -0.0273 C   0  0
    4.0256    2.0320   -0.0263 C   0  0
    3.2196    3.1601   -0.0130 C   0  0
    1.8448    3.0378   -0.0001 C   0  0
    1.2633    1.7803   -0.0004 C   0  0
   -0.0162    1.3409    0.0094 O   0  0
    0.3773   -8.6396    0.8413 H   0  0
    0.3607   -8.6295   -0.9369 H   0  0
   -0.0927  -10.1536   -0.0522 H   0  0
    0.5306   -6.8277   -0.0349 H   0  0
    0.2856   -4.3620   -0.0391 H   0  0
   -4.0178   -4.7966    0.0148 H   0  0
   -5.3440   -6.1369   -0.8769 H   0  0
   -5.3254   -6.1471    0.9193 H   0  0
   -5.1644   -9.6445    0.0003 H   0  0
   -7.5602  -10.7742    0.0191 H   0  0
   -9.4014   -8.8120    0.0443 H   0  0
   -3.0314   -2.5089    0.0175 H   0  0
   -2.0542   -0.3853    0.0197 H   0  0
    4.1077   -0.1179   -0.0383 H   0  0
    5.1200    2.1421   -0.0361 H   0  0
    3.6790    4.1596   -0.0127 H   0  0
    1.2118    3.9374    0.0104 H   0  0
  1  2  1  0
  2  3  1  0
  3  8  2  0
  3  4  1  0
  4  5  2  0
  5  6  1  0
  6  7  2  0
  6 16  1  0
  7  8  1  0
  8  9  1  0
  9 10  1  0
 10 11  1  0
 11 15  1  0
 11 12  1  0
 12 13  2  0
 13 14  1  0
 14 15  2  0
 16 17  2  0
 17 18  1  0
 18 19  1  0
 19 27  1  0
 19 20  2  0
 20 21  1  0
 21 26  1  0
 21 22  2  0
 22 23  1  0
 23 24  2  0
 24 25  1  0
 25 26  2  0
 26 27  1  0
  1 28  1  0
  1 29  1  0
  1 30  1  0
  4 31  1  0
  5 32  1  0
  7 33  1  0
 10 34  1  0
 10 35  1  0
 12 36  1  0
 13 37  1  0
 14 38  1  0
 16 39  1  0
 18 40  1  0
 22 41  1  0
 23 42  1  0
 24 43  1  0
 25 44  1  0
M  END
> <Name>
ZINC20291414

> <reference>
BDB50272062

> <quality>
0.769

> <status>
decoy

$$$$
ZINC14220272
  SciTegic06061311253D

 54 55  0  0  1  0            999 V2000
   -4.9557    0.5635    3.3740 C   0  0
   -3.5316    0.3343    2.8638 C   0  0
   -3.2426    1.2956    1.7092 C   0  0  2  0  0  0
   -4.1547    0.9617    0.5271 C   0  0
   -1.8025    1.1559    1.2877 C   0  0
   -1.3313   -0.0602    0.8294 C   0  0
   -0.0091   -0.1895    0.4473 C   0  0
    0.8393    0.8998    0.5136 C   0  0
    0.3668    2.1173    0.9670 C   0  0
   -0.9541    2.2453    1.3540 C   0  0
    2.2791    0.7604    0.0912 C   0  0  1  0  0  0
    2.4507    1.3118   -1.3256 C   0  0
    3.8776    1.0433   -1.8080 C   0  0
    3.1338    1.5112    1.0143 N   0  0
    4.3350    0.7342    1.8483 S   0  0
    5.0703   -0.0191    0.8938 O   0  0
    4.9452    1.7084    2.6836 O   0  0
    3.5574   -0.4303    2.9179 C   0  0
    3.6763   -1.7765    2.8503 C   0  0
    2.9310   -2.3056    3.8431 N   0  0
    2.3272   -1.2500    4.5385 N   0  0
    2.7033   -0.1266    3.9831 C   0  0
    2.2876    1.2557    4.4161 C   0  0
    2.7761   -3.7323    4.1380 C   0  0
    3.1460   -3.9941    5.5993 C   0  0
   -5.6719    0.3823    2.5590 H   0  0
   -5.0574    1.6004    3.7269 H   0  0
   -5.1641   -0.1274    4.2042 H   0  0
   -2.8161    0.5160    3.6793 H   0  0
   -3.4298   -0.7026    2.5109 H   0  0
   -3.4302    2.3288    2.0366 H   0  0
   -5.2062    1.0637    0.8337 H   0  0
   -3.9677   -0.0713    0.1987 H   0  0
   -3.9474    1.6525   -0.3034 H   0  0
   -2.0084   -0.9250    0.7688 H   0  0
    0.3679   -1.1593    0.0905 H   0  0
    1.0419    2.9842    1.0198 H   0  0
   -1.3301    3.2141    1.7147 H   0  0
    2.5650   -0.3017    0.1084 H   0  0
    2.2630    2.3957   -1.3237 H   0  0
    1.7368    0.8172   -2.0007 H   0  0
    4.0667   -0.0403   -1.8117 H   0  0
    4.5928    1.5374   -1.1339 H   0  0
    4.0017    1.4395   -2.8266 H   0  0
    2.9875    2.5224    1.1446 H   0  0
    4.2735   -2.3388    2.1174 H   0  0
    1.8767    1.6821    3.4891 H   0  0
    3.2542    1.7570    4.5722 H   0  0
    1.6067    1.3166    5.2779 H   0  0
    3.4380   -4.3173    3.4825 H   0  0
    1.7316   -4.0312    3.9655 H   0  0
    2.4842   -3.4107    6.2563 H   0  0
    4.1903   -3.6957    5.7734 H   0  0
    3.0299   -5.0652    5.8214 H   0  0
  1  2  1  0
  2  3  1  0
  3  4  1  0
  3  5  1  0
  5 10  2  0
  5  6  1  0
  6  7  2  0
  7  8  1  0
  8  9  2  0
  8 11  1  0
  9 10  1  0
 11 12  1  0
 11 14  1  0
 12 13  1  0
 14 15  1  0
 15 16  2  0
 15 17  2  0
 15 18  1  0
 18 22  1  0
 18 19  2  0
 19 20  1  0
 20 21  1  0
 20 24  1  0
 21 22  2  0
 22 23  1  0
 24 25  1  0
  1 26  1  0
  1 27  1  0
  1 28  1  0
  2 29  1  0
  2 30  1  0
  3 31  1  0
  4 32  1  0
  4 33  1  0
  4 34  1  0
  6 35  1  0
  7 36  1  0
  9 37  1  0
 10 38  1  0
 11 39  1  0
 12 40  1  0
 12 41  1  0
 13 42  1  0
 13 43  1  0
 13 44  1  0
 14 45  1  0
 19 46  1  0
 23 47  1  0
 23 48  1  0
 23 49  1  0
 24 50  1  0
 24 51  1  0
 25 52  1  0
 25 53  1  0
 25 54  1  0
M  END
> <Name>
ZINC14220272

> <reference>
BDB50272062

> <quality>
0.767

> <status>
decoy

$$$$
ZINC25369131
  SciTegic06061311253D

 49 50  0  0  0  0            999 V2000
    0.4301    4.0847    1.2693 C   0  0
    1.1472    3.5927    0.0105 C   0  0  2  0  0  0
    2.5815    4.1251   -0.0004 C   0  0
    0.4062    4.0982   -1.2290 C   0  0
    1.1705    2.0859    0.0021 C   0  0
   -0.0167    1.3772    0.0096 C   0  0
    0.0021   -0.0041    0.0020 C   0  0
    1.2134   -0.6801   -0.0132 C   0  0
    2.4032    0.0333   -0.0208 C   0  0
    2.3791    1.4145   -0.0132 C   0  0
    1.2345   -2.0389   -0.0203 O   0  0
    2.5176   -2.6678   -0.0360 C   0  0
    2.3407   -4.1875   -0.0419 C   0  0
    1.6922   -4.5988   -1.2895 N   0  0
    1.7052   -6.1913   -1.7436 S   0  0
    1.0208   -6.2189   -2.9886 O   0  0
    3.0688   -6.5817   -1.6577 O   0  0
    0.7297   -7.0457   -0.4751 C   0  0
    0.6742   -8.5181   -0.7912 C   0  0
   -0.3476   -9.0179   -1.5767 C   0  0
   -0.3968  -10.3673   -1.8712 C   0  0
    0.5720  -11.2203   -1.3704 C   0  0
    1.5921  -10.7194   -0.5794 C   0  0
    1.6421   -9.3689   -0.2906 C   0  0
    0.5223  -12.5404   -1.6537 F   0  0
    0.4122    5.1845    1.2762 H   0  0
    0.9620    3.7217    2.1611 H   0  0
   -0.6012    3.7023    1.2778 H   0  0
    3.1152    3.7621    0.8903 H   0  0
    2.5655    5.2250    0.0054 H   0  0
    3.0977    3.7717   -0.9052 H   0  0
    0.3889    5.1981   -1.2240 H   0  0
   -0.6252    3.7158   -1.2223 H   0  0
    0.9212    3.7448   -2.1345 H   0  0
   -0.9769    1.9137    0.0216 H   0  0
   -0.9426   -0.5675    0.0080 H   0  0
    3.3650   -0.5004   -0.0329 H   0  0
    3.3222    1.9806   -0.0193 H   0  0
    3.0847   -2.3689    0.8579 H   0  0
    3.0662   -2.3596   -0.9383 H   0  0
    1.7157   -4.4883    0.8118 H   0  0
    3.3253   -4.6717    0.0359 H   0  0
    1.2282   -3.8975   -1.8842 H   0  0
   -0.2911   -6.6363   -0.4585 H   0  0
    1.1994   -6.8999    0.5088 H   0  0
   -1.1219   -8.3413   -1.9675 H   0  0
   -1.2053  -10.7635   -2.5032 H   0  0
    2.3624  -11.3961   -0.1810 H   0  0
    2.4524   -8.9707    0.3378 H   0  0
  1  2  1  0
  2  3  1  0
  2  4  1  0
  2  5  1  0
  5 10  2  0
  5  6  1  0
  6  7  2  0
  7  8  1  0
  8  9  2  0
  8 11  1  0
  9 10  1  0
 11 12  1  0
 12 13  1  0
 13 14  1  0
 14 15  1  0
 15 16  2  0
 15 17  2  0
 15 18  1  0
 18 19  1  0
 19 24  2  0
 19 20  1  0
 20 21  2  0
 21 22  1  0
 22 23  2  0
 22 25  1  0
 23 24  1  0
  1 26  1  0
  1 27  1  0
  1 28  1  0
  3 29  1  0
  3 30  1  0
  3 31  1  0
  4 32  1  0
  4 33  1  0
  4 34  1  0
  6 35  1  0
  7 36  1  0
  9 37  1  0
 10 38  1  0
 12 39  1  0
 12 40  1  0
 13 41  1  0
 13 42  1  0
 14 43  1  0
 18 44  1  0
 18 45  1  0
 20 46  1  0
 21 47  1  0
 23 48  1  0
 24 49  1  0
M  END
> <Name>
ZINC25369131

> <reference>
BDB50272062

> <quality>
0.765

> <status>
decoy

$$$$
ZINC22127408
  SciTegic06061311253D

 53 54  0  0  1  0            999 V2000
    2.9124    0.7991   -1.4648 C   0  0
    2.4825    1.0417   -0.0166 C   0  0
    1.1706    1.7831    0.0005 C   0  0
    1.1662    3.1705    0.0080 C   0  0
   -0.0151    3.8590    0.0235 C   0  0
   -1.2218    3.1609    0.0313 C   0  0
   -1.2241    1.7560    0.0174 C   0  0
   -0.0126    1.0758    0.0080 C   0  0
   -2.5119    1.3576    0.0213 O   0  0
   -3.3411    2.4159    0.0310 C   0  0
   -2.6356    3.5550    0.0473 C   0  0
   -3.1836    4.9588    0.0614 C   0  0
   -3.2645    5.4807   -1.3500 C   0  0
   -2.9132    4.7842   -2.2727 O   0  0
   -3.7269    6.7193   -1.5821 O   0  0
   -3.7768    7.1557   -2.9660 C   0  0  1  0  0  0
   -5.1342    6.7871   -3.5683 C   0  0
   -3.5884    8.6496   -3.0288 C   0  0
   -3.4278    9.2839   -2.0077 O   0  0
   -3.5984    9.2806   -4.2197 N   0  0
   -3.4152   10.7328   -4.2807 C   0  0  1  0  0  0
   -4.5285   11.4210   -3.4884 C   0  0
   -2.1093   11.0874   -3.7013 C   0  0
   -1.1016   11.3611   -3.2541 N   0  0
   -3.4678   11.1926   -5.7390 C   0  0  1  0  0  0
   -3.4017   12.7202   -5.7948 C   0  0
   -2.2809   10.6025   -6.5030 C   0  0
    3.0306    1.7639   -1.9798 H   0  0
    2.1470    0.2004   -1.9802 H   0  0
    3.8700    0.2579   -1.4780 H   0  0
    3.2479    1.6404    0.4989 H   0  0
    2.3643    0.0765    0.4975 H   0  0
    2.1190    3.7201    0.0014 H   0  0
   -0.0133    4.9590    0.0298 H   0  0
    0.0023   -0.0241    0.0065 H   0  0
   -4.4394    2.3554    0.0262 H   0  0
   -2.5205    5.6065    0.6536 H   0  0
   -4.1885    4.9558    0.5088 H   0  0
   -2.9763    6.6609   -3.5356 H   0  0
   -5.9354    7.2817   -2.9995 H   0  0
   -5.2726    5.6968   -3.5232 H   0  0
   -5.1727    7.1174   -4.6168 H   0  0
   -3.7348    8.7418   -5.0869 H   0  0
   -4.4913   11.0912   -2.4397 H   0  0
   -5.5048   11.1568   -3.9208 H   0  0
   -4.3915   12.5115   -3.5338 H   0  0
   -4.4066   10.8492   -6.1981 H   0  0
   -2.4631   13.0646   -5.3361 H   0  0
   -4.2549   13.1455   -5.2460 H   0  0
   -3.4395   13.0515   -6.8430 H   0  0
   -2.3277    9.5042   -6.4637 H   0  0
   -1.3415   10.9455   -6.0448 H   0  0
   -2.3181   10.9327   -7.5516 H   0  0
  1  2  1  0
  2  3  1  0
  3  8  1  0
  3  4  2  0
  4  5  1  0
  5  6  2  0
  6 11  1  0
  6  7  1  0
  7  8  2  0
  7  9  1  0
  9 10  1  0
 10 11  2  0
 11 12  1  0
 12 13  1  0
 13 14  2  0
 13 15  1  0
 15 16  1  0
 16 17  1  0
 16 18  1  0
 18 19  2  0
 18 20  1  0
 20 21  1  0
 21 22  1  0
 21 23  1  0
 21 25  1  0
 23 24  3  0
 25 26  1  0
 25 27  1  0
  1 28  1  0
  1 29  1  0
  1 30  1  0
  2 31  1  0
  2 32  1  0
  4 33  1  0
  5 34  1  0
  8 35  1  0
 10 36  1  0
 12 37  1  0
 12 38  1  0
 16 39  1  0
 17 40  1  0
 17 41  1  0
 17 42  1  0
 20 43  1  0
 22 44  1  0
 22 45  1  0
 22 46  1  0
 25 47  1  0
 26 48  1  0
 26 49  1  0
 26 50  1  0
 27 51  1  0
 27 52  1  0
 27 53  1  0
M  END
> <Name>
ZINC22127408

> <reference>
BDB50272062

> <quality>
0.765

> <status>
decoy

$$$$
ZINC07449313
  SciTegic06061311253D

 36 38  0  0  0  0            999 V2000
   -3.0167   13.3545    6.8635 C   0  0
   -2.6690   12.3121    5.7989 C   0  0
   -1.6406   12.8413    4.9210 O   0  0
   -1.2202   12.0450    3.9255 C   0  0
   -1.6958   10.9423    3.7921 O   0  0
   -0.1550   12.5263    2.9743 C   0  0
    0.1341   11.4515    1.9583 C   0  0
    0.0491   11.7115    0.6318 C   0  0
    0.4863   10.1181   -0.0484 S   0  0
    0.7315    9.2887    1.4574 C   0  0
    0.4710   10.2343    2.3409 N   0  0
    1.2001    7.6130    1.7349 S   0  0
    1.3438    7.0394    0.0242 C   0  0
    1.7475    5.5876    0.0134 C   0  0
    0.9406    4.5560    0.0116 N   0  0
    1.7430    3.4671    0.0036 C   0  0
    2.9786    3.8983   -0.0069 N   0  0
    2.9963    5.1111   -0.0014 O   0  0
    1.3050    2.0510    0.0006 C   0  0
    2.2372    1.0152   -0.0139 C   0  0
    1.7678   -0.2525   -0.0162 C   0  0
    0.0021   -0.0041    0.0020 S   0  0
   -0.0214    1.7292    0.0115 C   0  0
   -3.3865   14.2686    6.3761 H   0  0
   -2.1188   13.5916    7.4530 H   0  0
   -3.7958   12.9542    7.5289 H   0  0
   -2.2990   11.3985    6.2872 H   0  0
   -3.5669   12.0749    5.2094 H   0  0
   -0.5058   13.4325    2.4589 H   0  0
    0.7628   12.7557    3.5355 H   0  0
   -0.2160   12.6460    0.1155 H   0  0
    0.3747    7.1538   -0.4836 H   0  0
    2.1054    7.6349   -0.5006 H   0  0
    3.3175    1.2220   -0.0232 H   0  0
    2.3316   -1.1970   -0.0266 H   0  0
   -0.8906    2.4033    0.0234 H   0  0
  1  2  1  0
  2  3  1  0
  3  4  1  0
  4  5  2  0
  4  6  1  0
  6  7  1  0
  7 11  1  0
  7  8  2  0
  8  9  1  0
  9 10  1  0
 10 11  2  0
 10 12  1  0
 12 13  1  0
 13 14  1  0
 14 18  1  0
 14 15  2  0
 15 16  1  0
 16 17  2  0
 16 19  1  0
 17 18  1  0
 19 23  2  0
 19 20  1  0
 20 21  2  0
 21 22  1  0
 22 23  1  0
  1 24  1  0
  1 25  1  0
  1 26  1  0
  2 27  1  0
  2 28  1  0
  6 29  1  0
  6 30  1  0
  8 31  1  0
 13 32  1  0
 13 33  1  0
 20 34  1  0
 21 35  1  0
 23 36  1  0
M  END
> <Name>
ZINC07449313

> <reference>
BDB50272062

> <quality>
0.761

> <status>
decoy

$$$$
ZINC07222863
  SciTegic06061311253D

 43 45  0  0  0  0            999 V2000
    1.8779   -0.2180   -5.7463 C   0  0
    0.9955    0.3888   -4.6860 C   0  0
   -0.1184    1.1532   -4.8497 C   0  0
   -0.7846    1.6116   -3.7438 C   0  0
   -0.2667    1.2573   -2.5020 C   0  0
    1.1582    0.2876   -2.9630 S   0  0
   -0.7416    1.5850   -1.2129 C   0  0
   -1.7373    2.2691   -1.0883 O   0  0
   -0.0127    1.0858    0.0080 C   0  0
   -0.6923    1.5541    1.2026 O   0  0
   -0.1661    1.1940    2.3838 C   0  0
    0.8294    0.5102    2.4184 O   0  0
   -0.8170    1.6426    3.6668 C   0  0
   -0.0582    1.1228    4.8071 N   0  0
   -0.3512   -0.0187    5.4739 C   0  0
    0.5532   -0.2123    6.4774 C   0  0
    1.4866    0.9282    6.4238 C   0  0
    1.0520    1.7306    5.3566 C   0  0
    1.7451    2.8980    5.0549 C   0  0
    2.8467    3.2561    5.8014 C   0  0
    3.2744    2.4625    6.8556 C   0  0
    2.6008    1.3021    7.1700 C   0  0
    0.5872   -1.3316    7.4256 C   0  0
    1.4518   -1.3791    8.2793 O   0  0
   -0.3402   -2.3075    7.3502 O   0  0
   -0.2452   -3.3836    8.3204 C   0  0
    1.8858   -1.2676   -5.4173 H   0  0
    2.8591    0.1617   -5.4253 H   0  0
    1.6402   -0.0620   -6.8089 H   0  0
   -0.4799    1.4003   -5.8588 H   0  0
   -1.6885    2.2320   -3.8336 H   0  0
    0.0018   -0.0141    0.0024 H   0  0
    1.0194    1.4662    0.0013 H   0  0
   -1.8480    1.2615    3.7090 H   0  0
   -0.8305    2.7418    3.7065 H   0  0
   -1.1918   -0.6891    5.2417 H   0  0
    1.4143    3.5348    4.2212 H   0  0
    3.3921    4.1801    5.5590 H   0  0
    4.1552    2.7607    7.4432 H   0  0
    2.9418    0.6744    8.0065 H   0  0
   -0.2913   -2.9111    9.3127 H   0  0
    0.7569   -3.8212    8.2006 H   0  0
   -1.0349   -4.1389    8.1943 H   0  0
  1  2  1  0
  2  6  1  0
  2  3  2  0
  3  4  1  0
  4  5  2  0
  5  6  1  0
  5  7  1  0
  7  8  2  0
  7  9  1  0
  9 10  1  0
 10 11  1  0
 11 12  2  0
 11 13  1  0
 13 14  1  0
 14 18  1  0
 14 15  1  0
 15 16  2  0
 16 17  1  0
 16 23  1  0
 17 22  2  0
 17 18  1  0
 18 19  2  0
 19 20  1  0
 20 21  2  0
 21 22  1  0
 23 24  2  0
 23 25  1  0
 25 26  1  0
  1 27  1  0
  1 28  1  0
  1 29  1  0
  3 30  1  0
  4 31  1  0
  9 32  1  0
  9 33  1  0
 13 34  1  0
 13 35  1  0
 15 36  1  0
 19 37  1  0
 20 38  1  0
 21 39  1  0
 22 40  1  0
 26 41  1  0
 26 42  1  0
 26 43  1  0
M  END
> <Name>
ZINC07222863

> <reference>
BDB50272062

> <quality>
0.760

> <status>
decoy

$$$$
ZINC31093233
  SciTegic06061311253D

 46 48  0  0  0  0            999 V2000
    9.7822    1.2441   -0.0859 C   0  0
    9.6387    2.6659   -0.0768 O   0  0
    8.3711    3.1584   -0.0621 C   0  0
    7.2942    2.2936   -0.0565 C   0  0
    5.9926    2.8034   -0.0409 C   0  0
    5.7871    4.1858   -0.0368 C   0  0
    6.8659    5.0426   -0.0365 C   0  0
    8.1587    4.5363   -0.0520 C   0  0
    9.2186    5.3851   -0.0570 O   0  0
    8.9291    6.7844   -0.0462 C   0  0
   10.2187    7.5642   -0.0537 C   0  0
   11.4250    6.8894   -0.0632 C   0  0
   12.6054    7.6162   -0.0762 C   0  0
   12.5282    9.0007   -0.0674 C   0  0
   11.2859    9.6057   -0.0518 C   0  0
   10.1833    8.8823   -0.0457 N   0  0
    4.8391    1.8847   -0.0349 C   0  0
    5.0194    0.6831   -0.0436 O   0  0
    3.5851    2.3777   -0.0198 O   0  0
    2.4983    1.4149   -0.0147 C   0  0
    1.1802    2.1454    0.0023 C   0  0
    1.1542    3.5248    0.0100 C   0  0
   -0.0549    4.1969    0.0252 C   0  0
   -1.2457    3.4919    0.0328 C   0  0
   -1.2343    2.1127    0.0194 C   0  0
   -0.0173    1.4278    0.0099 C   0  0
    0.0021   -0.0041    0.0020 C   0  0
    0.0175   -1.1399   -0.0042 N   0  0
    9.2387    0.8841   -0.9719 H   0  0
    9.2555    0.8744    0.8063 H   0  0
   10.8341    0.9227   -0.0976 H   0  0
    7.4603    1.2062   -0.0643 H   0  0
    4.7640    4.5897   -0.0338 H   0  0
    6.7027    6.1304   -0.0240 H   0  0
    8.3392    7.0438   -0.9376 H   0  0
    8.3556    7.0344    0.8586 H   0  0
   11.4480    5.7896   -0.0605 H   0  0
   13.5802    7.1067   -0.0931 H   0  0
   13.4442    9.6097   -0.0728 H   0  0
   11.2159   10.7034   -0.0444 H   0  0
    2.5584    0.7891   -0.9173 H   0  0
    2.5753    0.7781    0.8789 H   0  0
    2.0970    4.0915    0.0040 H   0  0
   -0.0698    5.2968    0.0313 H   0  0
   -2.2035    4.0326    0.0496 H   0  0
   -2.1816    1.5536    0.0162 H   0  0
  1  2  1  0
  2  3  1  0
  3  8  2  0
  3  4  1  0
  4  5  2  0
  5  6  1  0
  5 17  1  0
  6  7  2  0
  7  8  1  0
  8  9  1  0
  9 10  1  0
 10 11  1  0
 11 16  2  0
 11 12  1  0
 12 13  2  0
 13 14  1  0
 14 15  2  0
 15 16  1  0
 17 18  2  0
 17 19  1  0
 19 20  1  0
 20 21  1  0
 21 26  2  0
 21 22  1  0
 22 23  2  0
 23 24  1  0
 24 25  2  0
 25 26  1  0
 26 27  1  0
 27 28  3  0
  1 29  1  0
  1 30  1  0
  1 31  1  0
  4 32  1  0
  6 33  1  0
  7 34  1  0
 10 35  1  0
 10 36  1  0
 12 37  1  0
 13 38  1  0
 14 39  1  0
 15 40  1  0
 20 41  1  0
 20 42  1  0
 22 43  1  0
 23 44  1  0
 24 45  1  0
 25 46  1  0
M  END
> <Name>
ZINC31093233

> <reference>
BDB50272062

> <quality>
0.759

> <status>
decoy

$$$$
ZINC05573721
  SciTegic06061311253D

 47 49  0  0  0  0            999 V2000
   -2.0158   -1.4440   -1.3455 C   0  0
   -1.5806   -0.2437   -0.5449 C   0  0
   -2.4077    0.3109    0.3062 C   0  0
   -0.1938    0.3186   -0.7234 C   0  0
   -0.0220    1.4452    0.1387 O   0  0
    1.1818    2.0730    0.1005 C   0  0
    2.1793    1.6073   -0.7480 C   0  0
    3.4013    2.2423   -0.7953 C   0  0
    3.6434    3.3496    0.0178 C   0  0
    2.6400    3.8148    0.8760 C   0  0
    1.4137    3.1732    0.9125 C   0  0
    2.8690    4.8918    1.6706 O   0  0
    4.9568    4.0308   -0.0270 C   0  0
    6.1477    3.2924    0.0549 C   0  0
    7.3509    3.9818    0.0033 C   0  0
    7.3337    5.3014   -0.1104 N   0  0
    6.1969    5.9645   -0.1799 C   0  0
    5.0298    5.3558   -0.1402 N   0  0
    6.1231    1.9393    0.1765 O   0  0
    7.3040    1.2942    0.3653 C   0  0
    7.8902    0.5974   -0.6825 C   0  0
    9.0932   -0.0547   -0.4923 C   0  0
    9.7108   -0.0238    0.7437 C   0  0
    9.1263    0.6669    1.7956 C   0  0
    7.9216    1.3266    1.6061 C   0  0
    9.7340    0.6964    3.0108 O   0  0
   10.9728   -0.0052    3.1339 C   0  0
   -2.9216   -1.1218   -1.8800 H   0  0
   -2.3227   -2.1926   -0.6002 H   0  0
   -1.2399   -1.8239   -2.0265 H   0  0
   -3.4199   -0.0995    0.4365 H   0  0
   -2.0900    1.1870    0.8906 H   0  0
    0.5497   -0.4520   -0.4715 H   0  0
   -0.0562    0.6332   -1.7684 H   0  0
    1.9927    0.7292   -1.3837 H   0  0
    4.1857    1.8761   -1.4740 H   0  0
    0.6231    3.5361    1.5857 H   0  0
    3.1355    5.6142    1.0484 H   0  0
    8.3065    3.4395    0.0561 H   0  0
    6.2238    7.0601   -0.2740 H   0  0
    7.3965    0.5644   -1.6649 H   0  0
    9.5603   -0.5994   -1.3260 H   0  0
   10.6666   -0.5472    0.8937 H   0  0
    7.4567    1.8747    2.4388 H   0  0
   11.6467    0.4219    2.3766 H   0  0
   10.7667   -1.0484    2.8523 H   0  0
   11.4026    0.0644    4.1440 H   0  0
  1  2  1  0
  2  3  2  0
  2  4  1  0
  4  5  1  0
  5  6  1  0
  6 11  2  0
  6  7  1  0
  7  8  2  0
  8  9  1  0
  9 10  2  0
  9 13  1  0
 10 11  1  0
 10 12  1  0
 13 18  2  0
 13 14  1  0
 14 15  2  0
 14 19  1  0
 15 16  1  0
 16 17  2  0
 17 18  1  0
 19 20  1  0
 20 25  2  0
 20 21  1  0
 21 22  2  0
 22 23  1  0
 23 24  2  0
 24 25  1  0
 24 26  1  0
 26 27  1  0
  1 28  1  0
  1 29  1  0
  1 30  1  0
  3 31  1  0
  3 32  1  0
  4 33  1  0
  4 34  1  0
  7 35  1  0
  8 36  1  0
 11 37  1  0
 12 38  1  0
 15 39  1  0
 17 40  1  0
 21 41  1  0
 22 42  1  0
 23 43  1  0
 25 44  1  0
 27 45  1  0
 27 46  1  0
 27 47  1  0
M  END
> <Name>
ZINC05573721

> <reference>
BDB50272062

> <quality>
0.755

> <status>
decoy

$$$$
ZINC08754357
  SciTegic06061311253D

 50 52  0  0  0  0            999 V2000
    0.8696    6.0093    0.9619 C   0  0
   -0.2088    5.0122    0.6247 C   0  0
   -1.4992    5.3094    0.8405 C   0  0
   -2.3608    3.8471    0.2945 S   0  0
   -0.9649    2.8761   -0.2090 C   0  0
    0.1368    3.7189    0.0625 C   0  0
    1.4147    3.1783   -0.2541 C   0  0
    1.4941    1.9625   -0.7655 N   0  0
    0.4148    1.2218   -0.9961 C   0  0
   -0.8024    1.6761   -0.7257 N   0  0
    0.5734   -0.1351   -1.5719 C   0  0
   -0.5450   -0.9374   -1.8189 C   0  0
   -0.3438   -2.1946   -2.3616 C   0  0
    0.9456   -2.6171   -2.6305 C   0  0
    1.9818   -1.8398   -2.3820 N   0  0
    1.8399   -0.6342   -1.8704 C   0  0
    2.5618    3.9179   -0.0284 N   0  0
    3.7378    3.0446    0.0827 C   0  0
    4.9053    3.8346    0.6774 C   0  0
    4.5905    4.2122    2.0192 O   0  0
    5.5706    5.0528    2.6316 C   0  0
    2.7528    4.9270   -1.0788 C   0  0
    2.9719    4.2291   -2.4226 C   0  0
    1.7721    3.5575   -2.8117 O   0  0
    1.9011    2.7816   -4.0048 C   0  0
   -2.0819    6.5777    1.4089 C   0  0
    1.4234    6.1512    0.0221 H   0  0
    1.5399    5.4744    1.6507 H   0  0
    0.4963    6.9551    1.3817 H   0  0
   -1.5588   -0.5785   -1.5878 H   0  0
   -1.2001   -2.8507   -2.5768 H   0  0
    1.1094   -3.6172   -3.0584 H   0  0
    2.7289   -0.0159   -1.6771 H   0  0
    4.0168    2.6747   -0.9150 H   0  0
    3.5014    2.1924    0.7369 H   0  0
    5.8101    3.2090    0.6758 H   0  0
    5.0829    4.7378    0.0752 H   0  0
    5.6703    5.9540    2.0088 H   0  0
    6.5281    4.5115    2.6160 H   0  0
    5.2887    5.3185    3.6611 H   0  0
    3.6309    5.5449   -0.8399 H   0  0
    1.8600    5.5666   -1.1397 H   0  0
    3.2370    4.9763   -3.1851 H   0  0
    3.7871    3.4966   -2.3280 H   0  0
    2.6986    2.0431   -3.8355 H   0  0
    2.2208    3.4606   -4.8090 H   0  0
    0.9562    2.2831   -4.2669 H   0  0
   -1.6489    7.3403    0.7448 H   0  0
   -1.5334    6.6704    2.3579 H   0  0
   -3.1763    6.6279    1.5081 H   0  0
  1  2  1  0
  2  6  1  0
  2  3  2  0
  3  4  1  0
  3 26  1  0
  4  5  1  0
  5 10  2  0
  5  6  1  0
  6  7  2  0
  7  8  1  0
  7 17  1  0
  8  9  2  0
  9 10  1  0
  9 11  1  0
 11 16  2  0
 11 12  1  0
 12 13  2  0
 13 14  1  0
 14 15  2  0
 15 16  1  0
 17 18  1  0
 17 22  1  0
 18 19  1  0
 19 20  1  0
 20 21  1  0
 22 23  1  0
 23 24  1  0
 24 25  1  0
  1 27  1  0
  1 28  1  0
  1 29  1  0
 12 30  1  0
 13 31  1  0
 14 32  1  0
 16 33  1  0
 18 34  1  0
 18 35  1  0
 19 36  1  0
 19 37  1  0
 21 38  1  0
 21 39  1  0
 21 40  1  0
 22 41  1  0
 22 42  1  0
 23 43  1  0
 23 44  1  0
 25 45  1  0
 25 46  1  0
 25 47  1  0
 26 48  1  0
 26 49  1  0
 26 50  1  0
M  END
> <Name>
ZINC08754357

> <reference>
BDB50272062

> <quality>
0.754

> <status>
decoy

$$$$
ZINC13075302
  SciTegic06061311253D

 43 45  0  0  0  0            999 V2000
    3.6453   -7.4542    0.6825 C   0  0
    5.0568   -6.9263    0.6868 C   0  0
    6.1217   -7.8011    0.7844 C   0  0
    7.4175   -7.3165    0.7946 C   0  0
    7.6498   -5.9555    0.7010 C   0  0
    6.5880   -5.0782    0.5975 C   0  0
    5.2878   -5.5623    0.5875 C   0  0
    4.2416   -4.7005    0.4862 O   0  0
    4.5539   -3.3091    0.3936 C   0  0
    3.2586   -2.5017    0.2876 C   0  0
    3.5930   -1.0119    0.1884 C   0  0
    2.3172   -0.2167    0.0839 C   0  0
    1.2500   -0.7833    0.0884 O   0  0
    2.3663    1.1215   -0.0141 O   0  0
    1.1813    1.7865    0.0167 C   0  0
    0.7115    2.4216   -1.1245 C   0  0
   -0.4904    3.1022   -1.0930 C   0  0
   -1.2338    3.1432    0.0711 C   0  0
   -0.7686    2.5097    1.2155 C   0  0
    0.4409    1.8304    1.1875 C   0  0
   -1.5208    2.5558    2.3985 N   0  0
   -2.7085    3.1693    2.5918 C   0  0
   -3.0537    2.9636    3.8359 N   0  0
   -2.1653    2.2620    4.4423 N   0  0
   -1.2030    1.9683    3.6357 N   0  0
    8.7536   -8.4171    0.9246 Cl  0  0
    3.2016   -7.0751   -0.2499 H   0  0
    3.1446   -6.9370    1.5142 H   0  0
    3.5788   -8.5490    0.7660 H   0  0
    5.9392   -8.8836    0.8540 H   0  0
    8.6808   -5.5721    0.7090 H   0  0
    6.7731   -3.9964    0.5231 H   0  0
    5.1075   -2.9969    1.2914 H   0  0
    5.1712   -3.1293   -0.4989 H   0  0
    2.7046   -2.8132   -0.6102 H   0  0
    2.6404   -2.6793    1.1800 H   0  0
    4.2104   -0.8322   -0.7041 H   0  0
    4.1466   -0.6996    1.0862 H   0  0
    1.2968    2.3830   -2.0551 H   0  0
   -0.8562    3.6124   -1.9963 H   0  0
   -2.1948    3.6781    0.0910 H   0  0
    0.8115    1.3276    2.0929 H   0  0
   -3.2792    3.7366    1.8418 H   0  0
  1  2  1  0
  2  7  2  0
  2  3  1  0
  3  4  2  0
  4  5  1  0
  4 26  1  0
  5  6  2  0
  6  7  1  0
  7  8  1  0
  8  9  1  0
  9 10  1  0
 10 11  1  0
 11 12  1  0
 12 13  2  0
 12 14  1  0
 14 15  1  0
 15 20  2  0
 15 16  1  0
 16 17  2  0
 17 18  1  0
 18 19  2  0
 19 20  1  0
 19 21  1  0
 21 25  1  0
 21 22  1  0
 22 23  2  0
 23 24  1  0
 24 25  2  0
  1 27  1  0
  1 28  1  0
  1 29  1  0
  3 30  1  0
  5 31  1  0
  6 32  1  0
  9 33  1  0
  9 34  1  0
 10 35  1  0
 10 36  1  0
 11 37  1  0
 11 38  1  0
 16 39  1  0
 17 40  1  0
 18 41  1  0
 20 42  1  0
 22 43  1  0
M  END
> <Name>
ZINC13075302

> <reference>
BDB50272062

> <quality>
0.752

> <status>
decoy

$$$$
ZINC15944201
  SciTegic06061311263D

 61 63  0  0  0  0            999 V2000
   -1.1992   -0.9139    0.0082 C   0  0
    0.0021   -0.0041    0.0020 C   0  0
   -0.0162    1.3410    0.0094 C   0  0
    1.2554    1.7695   -0.0004 N   0  0
    2.0500    0.7250   -0.0136 C   0  0
    1.2945   -0.3869   -0.0124 O   0  0
    3.5271    0.7646   -0.0280 C   0  0
    4.1958    1.9899   -0.0341 C   0  0
    5.5747    2.0201   -0.0431 C   0  0
    6.2968    0.8395   -0.0562 C   0  0
    5.6430   -0.3788   -0.0551 C   0  0
    4.2614   -0.4246   -0.0413 C   0  0
    3.6229   -1.6152   -0.0411 F   0  0
   -1.2461    2.2118    0.0203 C   0  0
   -1.7310    2.5519    1.7348 S   0  0
   -2.1252    1.3288    2.3415 O   0  0
   -0.7095    3.3283    2.3453 O   0  0
   -3.2024    3.5940    1.5359 C   0  0
   -3.7383    3.9709    2.8930 C   0  0
   -3.1824    3.5753    3.8957 O   0  0
   -4.8354    4.7475    2.9925 N   0  0
   -5.3563    5.1138    4.3118 C   0  0
   -6.5973    5.9928    4.1440 C   0  0
   -7.1414    6.3754    5.5218 C   0  0
   -8.3329    7.2194    5.3607 N   0  0
   -7.9847    8.5120    4.7546 C   0  0
   -9.2602    9.3278    4.5311 C   0  0
   -9.9472    9.5199    5.8159 N   0  3
  -10.2954    8.2272    6.4220 C   0  0
   -9.0199    7.4114    6.6455 C   0  0
  -11.1387   10.3638    5.6548 C   0  0
   -1.0068   -1.5560    0.8804 H   0  0
   -1.0234   -1.5461   -0.8747 H   0  0
   -2.1841   -0.4243    0.0203 H   0  0
    3.6241    2.9297   -0.0317 H   0  0
    6.1021    2.9854   -0.0399 H   0  0
    7.3963    0.8706   -0.0675 H   0  0
    6.2232   -1.3133   -0.0652 H   0  0
   -1.0289    3.1598   -0.4936 H   0  0
   -2.0678    1.6943   -0.4965 H   0  0
   -3.9727    3.0402    0.9792 H   0  0
   -2.9340    4.5057    0.9821 H   0  0
   -5.3075    5.0834    2.1410 H   0  0
   -5.6254    4.2025    4.8659 H   0  0
   -4.5876    5.6687    4.8697 H   0  0
   -6.3288    6.9046    3.5903 H   0  0
   -7.3676    5.4391    3.5872 H   0  0
   -6.3727    6.9302    6.0797 H   0  0
   -7.4105    5.4640    6.0759 H   0  0
   -7.4843    8.3432    3.7897 H   0  0
   -7.3105    9.0630    5.4269 H   0  0
   -8.9992   10.3078    4.1050 H   0  0
   -9.9239    8.7905    3.8377 H   0  0
   -9.3000   10.0058    6.4530 H   0  0
  -10.7955    8.3970    7.3869 H   0  0
  -10.9699    7.6756    5.7505 H   0  0
   -9.2816    6.4317    7.0719 H   0  0
   -8.3580    7.9496    7.3400 H   0  0
  -11.8225    9.8808    4.9413 H   0  0
  -10.8308   11.3406    5.2534 H   0  0
  -11.6422   10.4988    6.6234 H   0  0
  1  2  1  0
  2  6  1  0
  2  3  2  0
  3  4  1  0
  3 14  1  0
  4  5  2  0
  5  6  1  0
  5  7  1  0
  7 12  2  0
  7  8  1  0
  8  9  2  0
  9 10  1  0
 10 11  2  0
 11 12  1  0
 12 13  1  0
 14 15  1  0
 15 16  2  0
 15 17  2  0
 15 18  1  0
 18 19  1  0
 19 20  2  0
 19 21  1  0
 21 22  1  0
 22 23  1  0
 23 24  1  0
 24 25  1  0
 25 30  1  0
 25 26  1  0
 26 27  1  0
 27 28  1  0
 28 29  1  0
 28 31  1  0
 29 30  1  0
  1 32  1  0
  1 33  1  0
  1 34  1  0
  8 35  1  0
  9 36  1  0
 10 37  1  0
 11 38  1  0
 14 39  1  0
 14 40  1  0
 18 41  1  0
 18 42  1  0
 21 43  1  0
 22 44  1  0
 22 45  1  0
 23 46  1  0
 23 47  1  0
 24 48  1  0
 24 49  1  0
 26 50  1  0
 26 51  1  0
 27 52  1  0
 27 53  1  0
 28 54  1  0
 29 55  1  0
 29 56  1  0
 30 57  1  0
 30 58  1  0
 31 59  1  0
 31 60  1  0
 31 61  1  0
M  CHG  1  28   1
M  END
> <Name>
ZINC15944201

> <reference>
BDB50038594

> <quality>
0.841

> <status>
decoy

$$$$
ZINC20848137
  SciTegic06061311263D

 63 65  0  0  0  0            999 V2000
   -0.7980    2.8481    3.6930 C   0  0
   -1.3988    3.5648    2.4821 C   0  0
   -0.7832    3.0484    1.2523 N   0  3
   -0.7300    1.5798    1.2666 C   0  0
   -0.0127    1.0858    0.0080 C   0  0
   -0.7243    1.5730   -1.1819 N   0  0
   -0.7771    3.0416   -1.1959 C   0  0
   -1.4948    3.5356    0.0624 C   0  0
   -0.1087    1.0567   -2.4117 C   0  0
   -0.9976    1.3690   -3.5878 C   0  0
   -0.9333    2.4566   -4.3128 N   0  0
   -1.8608    2.4161   -5.2727 C   0  0
   -2.5480    1.2170   -5.1309 C   0  0
   -1.9749    0.5682   -4.0556 N   0  0
   -2.3586   -0.7413   -3.5223 C   0  0  1  0  0  0
   -3.7998   -0.7022   -3.0836 C   0  0
   -4.4407    0.3150   -3.2040 O   0  0
   -4.3716   -1.7975   -2.5590 O   0  0
   -5.7628   -1.6873   -2.1584 C   0  0
   -6.2369   -3.0254   -1.5878 C   0  0
   -2.1873   -1.7890   -4.5919 C   0  0
   -1.7859   -1.4743   -5.6871 O   0  0
   -2.4807   -3.0720   -4.3277 O   0  0
   -2.2917   -4.0268   -5.4052 C   0  0
   -2.6749   -5.4262   -4.9196 C   0  0
   -3.5952    0.9143   -6.0277 C   0  0
   -4.2127   -0.1303   -5.9237 O   0  0
   -3.9043    1.7959   -7.0013 N   0  0
   -3.2313    2.9527   -7.1267 C   0  0
   -3.5377    3.7231   -8.0163 O   0  0
   -2.2263    3.2797   -6.2927 N   0  0
   -1.5181    4.5506   -6.4637 C   0  0
    0.2871    3.0258    3.7244 H   0  0
   -0.9898    1.7679    3.6134 H   0  0
   -1.2586    3.2343    4.6143 H   0  0
   -1.2070    4.6450    2.5616 H   0  0
   -2.4838    3.3863    2.4513 H   0  0
    0.1837    3.4010    1.2108 H   0  0
   -0.1814    1.2410    2.1578 H   0  0
   -1.7524    1.1746    1.2882 H   0  0
    0.0024   -0.0141    0.0008 H   0  0
    1.0189    1.4675   -0.0002 H   0  0
   -1.3248    3.3818   -2.0872 H   0  0
    0.2458    3.4455   -1.2166 H   0  0
   -1.5100    4.6355    0.0673 H   0  0
   -2.5264    3.1537    0.0696 H   0  0
    0.8726    1.5317   -2.5581 H   0  0
    0.0199   -0.0326   -2.3293 H   0  0
   -1.7198   -0.9883   -2.6615 H   0  0
   -6.3773   -1.4237   -3.0319 H   0  0
   -5.8626   -0.9059   -1.3906 H   0  0
   -5.6241   -3.2900   -0.7134 H   0  0
   -6.1377   -3.8079   -2.3546 H   0  0
   -7.2909   -2.9425   -1.2841 H   0  0
   -2.9281   -3.7482   -6.2580 H   0  0
   -1.2372   -4.0241   -5.7182 H   0  0
   -3.7296   -5.4310   -4.6072 H   0  0
   -2.0392   -5.7063   -4.0667 H   0  0
   -2.5320   -6.1501   -5.7354 H   0  0
   -4.6674    1.5792   -7.6583 H   0  0
   -0.4596    4.2743   -6.5791 H   0  0
   -1.6158    5.0643   -5.4959 H   0  0
   -1.8873    5.1596   -7.3020 H   0  0
  1  2  1  0
  2  3  1  0
  3  8  1  0
  3  4  1  0
  4  5  1  0
  5  6  1  0
  6  7  1  0
  6  9  1  0
  7  8  1  0
  9 10  1  0
 10 14  1  0
 10 11  2  0
 11 12  1  0
 12 31  1  0
 12 13  2  0
 13 14  1  0
 13 26  1  0
 14 15  1  0
 15 16  1  0
 15 21  1  0
 16 17  2  0
 16 18  1  0
 18 19  1  0
 19 20  1  0
 21 22  2  0
 21 23  1  0
 23 24  1  0
 24 25  1  0
 26 27  2  0
 26 28  1  0
 28 29  1  0
 29 30  2  0
 29 31  1  0
 31 32  1  0
  1 33  1  0
  1 34  1  0
  1 35  1  0
  2 36  1  0
  2 37  1  0
  3 38  1  0
  4 39  1  0
  4 40  1  0
  5 41  1  0
  5 42  1  0
  7 43  1  0
  7 44  1  0
  8 45  1  0
  8 46  1  0
  9 47  1  0
  9 48  1  0
 15 49  1  0
 19 50  1  0
 19 51  1  0
 20 52  1  0
 20 53  1  0
 20 54  1  0
 24 55  1  0
 24 56  1  0
 25 57  1  0
 25 58  1  0
 25 59  1  0
 28 60  1  0
 32 61  1  0
 32 62  1  0
 32 63  1  0
M  CHG  1   3   1
M  END
> <Name>
ZINC20848137

> <reference>
BDB50038594

> <quality>
0.838

> <status>
decoy

$$$$
ZINC21026173
  SciTegic06061311263D

 62 64  0  0  1  0            999 V2000
    5.5575   -2.0909   -0.0043 C   0  0
    5.8005   -0.6463   -0.0171 N   0  0
    7.1732   -0.1344   -0.0228 C   0  0
    7.6452    0.0534    1.3960 C   0  0
    6.9076   -0.2140    2.3209 O   0  0
    8.8869    0.5185    1.6372 N   0  0
    9.3457    0.7011    3.0164 C   0  0
   10.7793    1.2357    3.0105 C   0  0
   11.1961    1.5347    4.3870 N   0  3
   11.5046    0.3015    5.1233 C   0  0
   11.6905    0.6262    6.6068 C   0  0
   12.0118   -0.6582    7.3737 C   0  0
   12.1854   -0.3549    8.7593 O   0  0
   12.4907   -1.4918    9.5693 C   0  0
   12.3395    2.4569    4.4023 C   0  0
   11.8653    3.8502    4.0783 C   0  0
   11.3597    4.7335    4.9578 C   0  0
   11.0476    5.9042    4.2291 C   0  0
   11.3812    5.6663    2.9479 C   0  0
   11.8813    4.4227    2.8635 O   0  0
    4.7296    0.2380   -0.0238 C   0  0
    4.7346    1.5576   -0.0344 N   0  0
    3.5436    2.2461   -0.0446 N   0  0
    2.4032    1.5851   -0.0322 C   0  0
    2.9768   -0.1065   -0.0192 S   0  0
    1.0994    2.0748   -0.0348 N   0  0
    0.7502    3.5003   -0.0460 C   0  0
   -0.7300    3.5654    0.3913 C   0  0
   -1.2428    2.1664   -0.0279 C   0  0
   -0.0008    1.3026   -0.0270 C   0  0
    0.0017    0.0897   -0.0248 O   0  0
    6.0943   -2.4592    0.8824 H   0  0
    6.0927   -2.4746   -0.8854 H   0  0
    4.4939   -2.3716   -0.0009 H   0  0
    7.2036    0.8309   -0.5493 H   0  0
    7.8303   -0.8524   -0.5352 H   0  0
    9.5133    0.7456    0.8518 H   0  0
    9.3171   -0.2635    3.5443 H   0  0
    8.6892    1.4194    3.5293 H   0  0
   10.8270    2.1536    2.4062 H   0  0
   11.4514    0.4784    2.5808 H   0  0
   10.4089    1.9986    4.8623 H   0  0
   10.6764   -0.4128    5.0059 H   0  0
   12.4301   -0.1417    4.7270 H   0  0
   12.5189    1.3402    6.7250 H   0  0
   10.7655    1.0686    7.0052 H   0  0
   11.1836   -1.3725    7.2562 H   0  0
   12.9373   -1.1014    6.9774 H   0  0
   13.4118   -1.9438    9.1727 H   0  0
   11.6696   -2.2140    9.4501 H   0  0
   12.6158   -1.2133   10.6261 H   0  0
   12.8026    2.4505    5.4000 H   0  0
   13.0789    2.1385    3.6527 H   0  0
   11.2165    4.5753    6.0369 H   0  0
   10.6150    6.8316    4.6325 H   0  0
   11.2642    6.3708    2.1112 H   0  0
    1.3775    4.0480    0.6727 H   0  0
    0.8587    3.9083   -1.0618 H   0  0
   -1.2615    4.3505   -0.1665 H   0  0
   -0.8025    3.6885    1.4820 H   0  0
   -1.9656    1.7913    0.7115 H   0  0
   -1.6744    2.2079   -1.0389 H   0  0
  1  2  1  0
  2  3  1  0
  2 21  1  0
  3  4  1  0
  4  5  2  0
  4  6  1  0
  6  7  1  0
  7  8  1  0
  8  9  1  0
  9 10  1  0
  9 15  1  0
 10 11  1  0
 11 12  1  0
 12 13  1  0
 13 14  1  0
 15 16  1  0
 16 20  1  0
 16 17  2  0
 17 18  1  0
 18 19  2  0
 19 20  1  0
 21 25  1  0
 21 22  2  0
 22 23  1  0
 23 24  2  0
 24 25  1  0
 24 26  1  0
 26 30  1  0
 26 27  1  0
 27 28  1  0
 28 29  1  0
 29 30  1  0
 30 31  2  0
  1 32  1  0
  1 33  1  0
  1 34  1  0
  3 35  1  0
  3 36  1  0
  6 37  1  0
  7 38  1  0
  7 39  1  0
  8 40  1  0
  8 41  1  0
  9 42  1  0
 10 43  1  0
 10 44  1  0
 11 45  1  0
 11 46  1  0
 12 47  1  0
 12 48  1  0
 14 49  1  0
 14 50  1  0
 14 51  1  0
 15 52  1  0
 15 53  1  0
 17 54  1  0
 18 55  1  0
 19 56  1  0
 27 57  1  0
 27 58  1  0
 28 59  1  0
 28 60  1  0
 29 61  1  0
 29 62  1  0
M  CHG  1   9   1
M  END
> <Name>
ZINC21026173

> <reference>
BDB50038594

> <quality>
0.809

> <status>
decoy

$$$$
ZINC13033234
  SciTegic06061311263D

 66 69  0  0  1  0            999 V2000
   -2.6324   -5.4119    6.3108 C   0  0
   -1.4076   -5.9675    5.6309 C   0  0
   -0.6801   -6.9572    6.2293 C   0  0
    0.4497   -7.4753    5.6116 C   0  0
    0.8599   -7.0017    4.3837 C   0  0
    0.1356   -5.9942    3.7556 C   0  0
   -1.0099   -5.4712    4.3853 C   0  0
   -1.7658   -4.4108    3.7161 C   0  0
   -1.3329   -3.9696    2.5093 C   0  0
   -0.1808   -4.5314    1.9184 C   0  0
    0.1882   -4.1233    0.8308 O   0  0
    0.5227   -5.5020    2.5274 N   0  0
   -2.0882   -2.8796    1.7934 C   0  0
   -1.6996   -1.1519    3.4446 C   0  0
   -3.2005   -0.9365    3.6490 C   0  0
   -3.1196   -1.5541    5.9898 C   0  0
   -3.3349   -1.0303    7.4122 C   0  0
   -4.6838   -0.5749    7.5480 O   0  0
   -5.0378    0.4597    6.6262 C   0  0
   -4.8397   -0.0490    5.1958 C   0  0
   -1.9009   -0.5662    1.1038 C   0  0
   -1.0540    0.6717    1.2505 C   0  0
   -1.2871    1.6900    2.0421 N   0  0
   -0.3368    2.5451    1.8809 N   0  0
    0.4993    2.0961    1.0110 N   0  0
    0.0889    0.9459    0.5946 N   0  0
    0.7467    0.0953   -0.4004 C   0  0
    0.2203    0.4411   -1.7948 C   0  0
    0.8619   -0.3886   -2.7654 O   0  0
    0.4392   -0.1452   -4.1086 C   0  0
    2.0889   -7.5730    3.7248 C   0  0
   -1.4224   -1.5872    2.0595 N   0  0
   -3.4324   -0.4715    5.0337 N   0  0
   -3.4472   -5.5492    5.5847 H   0  0
   -2.4476   -4.3304    6.3894 H   0  0
   -2.8521   -5.8745    7.2843 H   0  0
   -0.9926   -7.3469    7.2094 H   0  0
    1.0238   -8.2722    6.1070 H   0  0
   -2.6650   -3.9815    4.1821 H   0  0
    1.3630   -5.8833    2.0697 H   0  0
   -2.0859   -3.0789    0.7116 H   0  0
   -3.1235   -2.8431    2.1633 H   0  0
   -1.1661   -0.2107    3.6432 H   0  0
   -1.3422   -1.9209    4.1452 H   0  0
   -3.5634   -0.1774    2.9405 H   0  0
   -3.7351   -1.8837    3.4850 H   0  0
   -3.7852   -2.4105    5.8067 H   0  0
   -2.0713   -1.8634    5.8657 H   0  0
   -3.1464   -1.8389    8.1338 H   0  0
   -2.6450   -0.1957    7.6056 H   0  0
   -6.0917    0.7383    6.7735 H   0  0
   -4.3975    1.3381    6.7946 H   0  0
   -5.5047   -0.9061    5.0140 H   0  0
   -5.0665    0.7569    4.4822 H   0  0
   -2.9511   -0.3220    1.3216 H   0  0
   -1.8142   -0.9536    0.0779 H   0  0
    1.8331    0.2644   -0.3669 H   0  0
    0.5330   -0.9610   -0.1802 H   0  0
   -0.8661    0.2718   -1.8291 H   0  0
    0.4341    1.4969   -2.0172 H   0  0
    0.6438    0.9118   -4.3342 H   0  0
   -0.6484   -0.3052   -4.1481 H   0  0
    0.9572   -0.8041   -4.8210 H   0  0
    1.8979   -8.6540    3.6540 H   0  0
    2.8966   -7.4333    4.4584 H   0  0
    2.3225   -7.1213    2.7494 H   0  0
  1  2  1  0
  2  7  2  0
  2  3  1  0
  3  4  2  0
  4  5  1  0
  5  6  2  0
  5 31  1  0
  6 12  1  0
  6  7  1  0
  7  8  1  0
  8  9  2  0
  9 10  1  0
  9 13  1  0
 10 11  2  0
 10 12  1  0
 13 32  1  0
 14 15  1  0
 14 32  1  0
 15 33  1  0
 16 17  1  0
 16 33  1  0
 17 18  1  0
 18 19  1  0
 19 20  1  0
 20 33  1  0
 21 22  1  0
 21 32  1  0
 22 26  1  0
 22 23  2  0
 23 24  1  0
 24 25  2  0
 25 26  1  0
 26 27  1  0
 27 28  1  0
 28 29  1  0
 29 30  1  0
  1 34  1  0
  1 35  1  0
  1 36  1  0
  3 37  1  0
  4 38  1  0
  8 39  1  0
 12 40  1  0
 13 41  1  0
 13 42  1  0
 14 43  1  0
 14 44  1  0
 15 45  1  0
 15 46  1  0
 16 47  1  0
 16 48  1  0
 17 49  1  0
 17 50  1  0
 19 51  1  0
 19 52  1  0
 20 53  1  0
 20 54  1  0
 21 55  1  0
 21 56  1  0
 27 57  1  0
 27 58  1  0
 28 59  1  0
 28 60  1  0
 30 61  1  0
 30 62  1  0
 30 63  1  0
 31 64  1  0
 31 65  1  0
 31 66  1  0
M  END
> <Name>
ZINC13033234

> <reference>
BDB50038594

> <quality>
0.795

> <status>
decoy

$$$$
ZINC20219701
  SciTegic06061311263D

 64 66  0  0  1  0            999 V2000
   -2.6326    2.5290   -1.0622 C   0  0
   -1.2060    2.1173   -0.8048 C   0  0
   -0.8587    0.7794   -0.8229 C   0  0
    0.4488    0.4014   -0.5810 C   0  0
    1.4112    1.3620   -0.3319 C   0  0
    1.0650    2.7002   -0.3195 C   0  0
   -0.2435    3.0779   -0.5561 C   0  0
    2.8378    0.9503   -0.0744 C   0  0  2  0  0  0
    3.1912    1.1804    1.3764 C   0  0
    4.2122    2.0675    1.3937 C   0  0
    4.5557    2.4401    0.0055 C   0  0
    5.4320    3.2201   -0.3106 O   0  0
    3.7540    1.7887   -0.8565 N   0  0
    3.7898    1.8965   -2.3171 C   0  0
    2.8560    3.0213   -2.7685 C   0  0
    2.8934    3.1340   -4.2939 C   0  0
    1.9969    4.2139   -4.7273 N   0  3
    2.1817    4.5109   -6.1540 C   0  0
    0.5955    3.8838   -4.4355 C   0  0
    4.8227    2.5385    2.5058 O   0  5
    2.5504    0.5612    2.5418 C   0  0
    1.4760    0.9747    2.9369 O   0  0
    3.2078   -0.5622    3.2344 C   0  0
    2.7622   -1.1969    4.4152 C   0  0
    3.6622   -2.1809    4.7035 C   0  0
    4.6486   -2.1614    3.7405 N   0  0
    4.3811   -1.1898    2.8537 C   0  0
    5.2160   -0.8422    1.6482 C   0  0
    3.5950   -3.0984    5.8456 C   0  0
    2.6727   -3.0209    6.6343 O   0  0
    4.5562   -4.0281    6.0211 O   0  0
    4.4252   -4.9022    7.1731 C   0  0
    1.5252   -0.8544    5.2048 C   0  0
   -2.5805    3.2232   -1.9139 H   0  0
   -2.9237    3.1181   -0.1800 H   0  0
   -3.3129    1.6848   -1.2480 H   0  0
   -1.6227    0.0156   -1.0298 H   0  0
    0.7234   -0.6638   -0.5867 H   0  0
    1.8308    3.4646   -0.1213 H   0  0
   -0.5189    4.1428   -0.5465 H   0  0
    2.9320   -0.1111   -0.3475 H   0  0
    4.8163    2.1197   -2.6434 H   0  0
    3.4613    0.9466   -2.7642 H   0  0
    1.8292    2.7985   -2.4429 H   0  0
    3.1836    3.9723   -2.3232 H   0  0
    2.5649    2.1842   -4.7410 H   0  0
    3.9199    3.3572   -4.6201 H   0  0
    2.2403    5.0606   -4.1937 H   0  0
    1.9703    3.6021   -6.7365 H   0  0
    3.2265    4.8112   -6.3221 H   0  0
    1.5047    5.3205   -6.4641 H   0  0
    0.4853    3.7275   -3.3522 H   0  0
    0.3322    2.9545   -4.9618 H   0  0
   -0.0636    4.7005   -4.7651 H   0  0
    5.4620   -2.7924    3.7068 H   0  0
    5.4106    0.2308    1.7926 H   0  0
    4.4883   -0.9069    0.8258 H   0  0
    6.1231   -1.4443    1.4914 H   0  0
    3.4489   -5.3994    7.0754 H   0  0
    4.3842   -4.2473    8.0559 H   0  0
    5.2455   -5.6313    7.2473 H   0  0
    0.7370   -0.9155    4.4400 H   0  0
    1.6638    0.2193    5.3997 H   0  0
    1.3278   -1.4547    6.1052 H   0  0
  1  2  1  0
  2  7  2  0
  2  3  1  0
  3  4  2  0
  4  5  1  0
  5  6  2  0
  5  8  1  0
  6  7  1  0
  8 13  1  0
  8  9  1  0
  9 10  2  0
  9 21  1  0
 10 11  1  0
 10 20  1  0
 11 12  2  0
 11 13  1  0
 13 14  1  0
 14 15  1  0
 15 16  1  0
 16 17  1  0
 17 18  1  0
 17 19  1  0
 21 22  2  0
 21 23  1  0
 23 27  2  0
 23 24  1  0
 24 25  2  0
 24 33  1  0
 25 26  1  0
 25 29  1  0
 26 27  1  0
 27 28  1  0
 29 30  2  0
 29 31  1  0
 31 32  1  0
  1 34  1  0
  1 35  1  0
  1 36  1  0
  3 37  1  0
  4 38  1  0
  6 39  1  0
  7 40  1  0
  8 41  1  0
 14 42  1  0
 14 43  1  0
 15 44  1  0
 15 45  1  0
 16 46  1  0
 16 47  1  0
 17 48  1  0
 18 49  1  0
 18 50  1  0
 18 51  1  0
 19 52  1  0
 19 53  1  0
 19 54  1  0
 26 55  1  0
 28 56  1  0
 28 57  1  0
 28 58  1  0
 32 59  1  0
 32 60  1  0
 32 61  1  0
 33 62  1  0
 33 63  1  0
 33 64  1  0
M  CHG  2  17   1  20  -1
M  END
> <Name>
ZINC20219701

> <reference>
BDB50038594

> <quality>
0.773

> <status>
decoy

$$$$
ZINC22682335
  SciTegic06061311263D

 61 62  0  0  1  0            999 V2000
    3.9156    2.8241  -11.5614 C   0  0
    3.3122    3.5786  -10.3750 C   0  0
    3.9542    3.1334   -9.1357 N   0  0
    3.4635    1.9383   -8.4449 C   0  0
    2.2974    2.3202   -7.5309 C   0  0
    5.2345    3.9811   -8.5156 S   0  0
    5.8221    4.6823   -9.6029 O   0  0
    5.9706    3.0723   -7.7084 O   0  0
    4.5745    5.2001   -7.4279 C   0  0
    3.8596    6.2892   -7.9459 C   0  0
    3.3555    7.2238   -7.0897 C   0  0
    3.5639    7.0743   -5.7080 C   0  0
    3.1183    7.9032   -4.9307 O   0  0
    4.2545    6.0167   -5.2411 N   0  0
    4.7617    5.0884   -6.0921 C   0  0
    4.4660    5.8694   -3.7990 C   0  0
    3.3319    5.0755   -3.2035 C   0  0
    2.4353    4.6725   -3.9137 O   0  0
    3.3141    4.8134   -1.8815 N   0  0
    2.2116    4.0417   -1.3026 C   0  0
    2.3692    3.9893    0.2183 C   0  0  2  0  0  0
    1.1932    3.2645    0.8206 C   0  0
    1.2967    1.9225    1.1367 C   0  0
    0.2187    1.2563    1.6887 C   0  0
   -0.9658    1.9299    1.9205 C   0  0
   -1.0689    3.2749    1.6092 C   0  0
    0.0118    3.9413    1.0562 C   0  0
   -2.2245    3.9356    1.8400 F   0  0
    2.4272    5.3567    0.7520 N   0  3
    1.5494    6.2563   -0.0084 C   0  0
    2.0917    5.3785    2.1820 C   0  0
    3.7519    1.7441  -11.4320 H   0  0
    4.9954    3.0268  -11.6154 H   0  0
    3.4340    3.1579  -12.4923 H   0  0
    3.4766    4.6584  -10.5051 H   0  0
    2.2324    3.3759  -10.3210 H   0  0
    3.1215    1.2007   -9.1859 H   0  0
    4.2740    1.5034   -7.8416 H   0  0
    1.4854    2.7543   -8.1327 H   0  0
    2.6379    3.0577   -6.7892 H   0  0
    1.9285    1.4233   -7.0119 H   0  0
    3.7069    6.3889   -9.0307 H   0  0
    2.7918    8.0855   -7.4767 H   0  0
    5.3308    4.2365   -5.6917 H   0  0
    4.5031    6.8634   -3.3293 H   0  0
    5.4152    5.3433   -3.6193 H   0  0
    4.0756    5.1557   -1.2783 H   0  0
    2.2262    3.0190   -1.7074 H   0  0
    1.2550    4.5225   -1.5552 H   0  0
    3.2975    3.4567    0.4725 H   0  0
    2.2376    1.3846    0.9488 H   0  0
    0.3035    0.1896    1.9436 H   0  0
   -1.8262    1.3975    2.3521 H   0  0
   -0.0703    5.0090    0.8046 H   0  0
    3.3942    5.6960    0.6486 H   0  0
    0.5171    5.8815    0.0532 H   0  0
    1.8691    6.2590   -1.0609 H   0  0
    1.6030    7.2755    0.4019 H   0  0
    2.8062    4.7420    2.7244 H   0  0
    1.0771    4.9750    2.3152 H   0  0
    2.1392    6.4076    2.5676 H   0  0
  1  2  1  0
  2  3  1  0
  3  4  1  0
  3  6  1  0
  4  5  1  0
  6  7  2  0
  6  8  2  0
  6  9  1  0
  9 15  2  0
  9 10  1  0
 10 11  2  0
 11 12  1  0
 12 13  2  0
 12 14  1  0
 14 15  1  0
 14 16  1  0
 16 17  1  0
 17 18  2  0
 17 19  1  0
 19 20  1  0
 20 21  1  0
 21 22  1  0
 21 29  1  0
 22 27  2  0
 22 23  1  0
 23 24  2  0
 24 25  1  0
 25 26  2  0
 26 27  1  0
 26 28  1  0
 29 30  1  0
 29 31  1  0
  1 32  1  0
  1 33  1  0
  1 34  1  0
  2 35  1  0
  2 36  1  0
  4 37  1  0
  4 38  1  0
  5 39  1  0
  5 40  1  0
  5 41  1  0
 10 42  1  0
 11 43  1  0
 15 44  1  0
 16 45  1  0
 16 46  1  0
 19 47  1  0
 20 48  1  0
 20 49  1  0
 21 50  1  0
 23 51  1  0
 24 52  1  0
 25 53  1  0
 27 54  1  0
 29 55  1  0
 30 56  1  0
 30 57  1  0
 30 58  1  0
 31 59  1  0
 31 60  1  0
 31 61  1  0
M  CHG  1  29   1
M  END
> <Name>
ZINC22682335

> <reference>
BDB50038594

> <quality>
0.759

> <status>
decoy

$$$$
ZINC22993672
  SciTegic06061311263D

 52 53  0  0  1  0            999 V2000
    5.4221    0.3294   -0.8763 C   0  0
    4.8747    1.0952    0.2463 N   0  0
    3.7321    1.9877    0.0362 C   0  0
    2.4330    1.1862    0.1403 C   0  0
    1.2397    2.1183   -0.0791 C   0  0
   -0.0399    1.3288    0.0234 C   0  0
   -0.0012    0.1378    0.2496 O   0  0
   -1.2270    1.9451   -0.1419 N   0  0
   -2.4094    1.1938   -0.1631 C   0  0
   -2.4077   -0.0880   -0.6967 C   0  0
   -3.5715   -0.8336   -0.7137 C   0  0
   -4.7455   -0.2997   -0.2088 C   0  0
   -4.7526    0.9883    0.3223 C   0  0
   -3.5833    1.7333    0.3441 C   0  0
   -5.9381    1.5296    0.8325 N   0  0
   -6.2564    3.1445    0.6509 S   0  0
   -7.5572    3.3211    1.1950 O   0  0
   -5.1354    3.8019    1.2257 O   0  0
   -6.2874    3.4148   -1.1426 C   0  0
   -5.8915   -1.0330   -0.2310 O   0  0
   -5.8110   -2.3457   -0.7900 C   0  0
    5.5475    0.9520    1.7527 S   0  0
    6.8865    0.5172    1.5597 O   0  0
    5.2277    2.1450    2.4554 O   0  0
    4.7062   -0.3587    2.5765 C   0  0
    4.9967   -1.6826    2.5925 C   0  0
    4.1895   -2.5373    3.3196 C   0  0
    3.1251   -2.0277    3.9864 C   0  0
    3.2454   -0.2888    3.6005 S   0  0
    5.6757    1.0841   -1.6353 H   0  0
    4.5697   -0.2452   -1.2678 H   0  0
    6.2779   -0.3101   -0.6143 H   0  0
    3.7376    2.7772    0.8022 H   0  0
    3.8011    2.4447   -0.9620 H   0  0
    2.4267    0.3968   -0.6257 H   0  0
    2.3617    0.7293    1.1384 H   0  0
    1.3087    2.5754   -1.0773 H   0  0
    1.2452    2.9077    0.6869 H   0  0
   -1.2650    2.9684   -0.2526 H   0  0
   -1.4786   -0.5109   -1.1066 H   0  0
   -3.5652   -1.8523   -1.1288 H   0  0
   -3.5861    2.7505    0.7628 H   0  0
   -6.6126    0.9235    1.3209 H   0  0
   -7.0872    2.8346   -1.6260 H   0  0
   -5.3151    3.1864   -1.6036 H   0  0
   -6.4967    4.4804   -1.3178 H   0  0
   -5.0439   -2.8816   -0.2117 H   0  0
   -5.4348   -2.2222   -1.8163 H   0  0
   -6.7749   -2.8754   -0.7729 H   0  0
    5.8619   -2.0710    2.0352 H   0  0
    4.4077   -3.6148    3.3565 H   0  0
    2.3804   -2.5501    4.6049 H   0  0
  1  2  1  0
  2  3  1  0
  2 22  1  0
  3  4  1  0
  4  5  1  0
  5  6  1  0
  6  7  2  0
  6  8  1  0
  8  9  1  0
  9 14  2  0
  9 10  1  0
 10 11  2  0
 11 12  1  0
 12 13  2  0
 12 20  1  0
 13 14  1  0
 13 15  1  0
 15 16  1  0
 16 17  2  0
 16 18  2  0
 16 19  1  0
 20 21  1  0
 22 23  2  0
 22 24  2  0
 22 25  1  0
 25 29  1  0
 25 26  2  0
 26 27  1  0
 27 28  2  0
 28 29  1  0
  1 30  1  0
  1 31  1  0
  1 32  1  0
  3 33  1  0
  3 34  1  0
  4 35  1  0
  4 36  1  0
  5 37  1  0
  5 38  1  0
  8 39  1  0
 10 40  1  0
 11 41  1  0
 14 42  1  0
 15 43  1  0
 19 44  1  0
 19 45  1  0
 19 46  1  0
 21 47  1  0
 21 48  1  0
 21 49  1  0
 26 50  1  0
 27 51  1  0
 28 52  1  0
M  END
> <Name>
ZINC22993672

> <reference>
BDB50038594

> <quality>
0.758

> <status>
decoy

$$$$
ZINC22671739
  SciTegic06061311263D

 53 55  0  0  0  0            999 V2000
  -14.4607    6.8708    1.7056 C   0  0
  -14.7537    8.1777    0.9661 C   0  0
  -13.9965    9.2724    1.5875 N   0  3
  -14.4166    9.4790    2.9799 C   0  0
  -15.8109   10.1085    3.0039 C   0  0
  -12.5507    9.0256    1.5050 C   0  0
  -12.1097    9.0636    0.0404 C   0  0
  -10.6265    8.8104   -0.0443 C   0  0
   -9.6860    9.7114   -0.0058 N   0  0
   -8.5334    9.1502   -0.0968 N   0  0
   -8.6780    7.8501   -0.2088 C   0  0
  -10.0184    7.5925   -0.1749 N   0  0
  -10.6415    6.3403   -0.2570 N   0  0
  -11.4607    5.9252   -1.2647 C   0  0
  -11.8609    4.6668   -0.9914 C   0  0
  -11.2742    4.2945    0.2343 C   0  0
  -10.5336    5.3377    0.6606 C   0  0
   -7.3864    6.6619   -0.3654 S   0  0
   -5.9458    7.7572   -0.3311 C   0  0
   -4.6878    6.9367   -0.4547 C   0  0
   -4.7583    5.7302   -0.5559 O   0  0
   -3.4845    7.5437   -0.4526 N   0  0
   -2.3242    6.7869   -0.5665 C   0  0
   -2.1958    5.4797   -0.6844 N   0  0
   -1.0077    4.9159   -0.7822 C   0  0
    0.0890    5.7121   -0.7592 C   0  0
   -0.6713    7.3193   -0.5820 S   0  0
    1.5216    5.3495   -0.8494 N   0  0
    1.8483    4.1817   -0.9630 O   0  0
    2.3733    6.2196   -0.8150 O   0  0
  -14.7591    6.9699    2.7597 H   0  0
  -13.3846    6.6497    1.6491 H   0  0
  -15.0274    6.0506    1.2407 H   0  0
  -14.4547    8.0778   -0.0878 H   0  0
  -15.8297    8.3989    1.0226 H   0  0
  -14.2007   10.1356    1.0639 H   0  0
  -13.7040   10.1488    3.4835 H   0  0
  -14.4427    8.5115    3.5026 H   0  0
  -16.5251    9.4394    2.5016 H   0  0
  -15.7864   11.0763    2.4816 H   0  0
  -16.1261   10.2635    4.0463 H   0  0
  -12.0133    9.8018    2.0694 H   0  0
  -12.3213    8.0376    1.9307 H   0  0
  -12.3373   10.0514   -0.3867 H   0  0
  -12.6465    8.2873   -0.5246 H   0  0
  -11.7460    6.5151   -2.1483 H   0  0
  -12.5236    4.0452   -1.6114 H   0  0
  -11.3976    3.3302    0.7489 H   0  0
   -9.9441    5.3736    1.5886 H   0  0
   -5.9286    8.3126    0.6182 H   0  0
   -6.0043    8.4664   -1.1699 H   0  0
   -3.4247    8.5684   -0.3666 H   0  0
   -0.9090    3.8247   -0.8802 H   0  0
  1  2  1  0
  2  3  1  0
  3  4  1  0
  3  6  1  0
  4  5  1  0
  6  7  1  0
  7  8  1  0
  8 12  1  0
  8  9  2  0
  9 10  1  0
 10 11  2  0
 11 12  1  0
 11 18  1  0
 12 13  1  0
 13 17  1  0
 13 14  1  0
 14 15  2  0
 15 16  1  0
 16 17  2  0
 18 19  1  0
 19 20  1  0
 20 21  2  0
 20 22  1  0
 22 23  1  0
 23 27  1  0
 23 24  2  0
 24 25  1  0
 25 26  2  0
 26 27  1  0
 26 28  1  0
 28 29  2  0
 28 30  2  0
  1 31  1  0
  1 32  1  0
  1 33  1  0
  2 34  1  0
  2 35  1  0
  3 36  1  0
  4 37  1  0
  4 38  1  0
  5 39  1  0
  5 40  1  0
  5 41  1  0
  6 42  1  0
  6 43  1  0
  7 44  1  0
  7 45  1  0
 14 46  1  0
 15 47  1  0
 16 48  1  0
 17 49  1  0
 19 50  1  0
 19 51  1  0
 22 52  1  0
 25 53  1  0
M  CHG  1   3   1
M  END
> <Name>
ZINC22671739

> <reference>
BDB50038594

> <quality>
0.756

> <status>
decoy

$$$$
ZINC20162135
  SciTegic06061311263D

 52 54  0  0  1  0            999 V2000
   -6.2651   -1.4514  -18.7624 C   0  0
   -6.4406   -1.9890  -17.3408 C   0  0
   -5.2154   -1.8399  -16.6206 O   0  0
   -5.2007   -2.2718  -15.3314 C   0  0
   -4.0436   -2.1568  -14.5748 C   0  0
   -4.0281   -2.5952  -13.2655 C   0  0
   -5.1710   -3.1507  -12.7060 C   0  0
   -6.3272   -3.2703  -13.4654 C   0  0
   -6.3430   -2.8267  -14.7730 C   0  0
   -5.1559   -3.5956  -11.3775 N   0  0
   -4.4295   -2.9354  -10.4539 C   0  0
   -3.7233   -2.0075  -10.7877 O   0  0
   -4.4949   -3.3501   -9.0066 C   0  0
   -3.4140   -2.2774   -8.0209 S   0  0
   -3.9340   -0.9556   -8.0620 O   0  0
   -2.0696   -2.5039   -8.4215 O   0  0
   -3.6293   -2.9266   -6.3408 C   0  0
   -2.7826   -2.1298   -5.3820 C   0  0
   -2.1011   -1.2140   -5.7917 O   0  0
   -2.7828   -2.4347   -4.0692 N   0  0
   -2.0015   -1.6993   -3.1844 C   0  0
   -1.1976   -0.6766   -3.4200 N   0  0
   -0.5538   -0.1075   -2.4953 N   0  0
   -0.6548   -0.5268   -1.2498 C   0  0
   -1.8137   -1.8726   -1.4639 S   0  0
    0.0117   -0.0138    0.0007 C   0  0  1  0  0  0
    1.4920   -0.4517    0.0225 C   0  0
    2.1990    0.8049    0.5996 C   0  0
    1.3239    1.9352    0.0018 C   0  0
   -0.0162    1.4182    0.0138 O   0  0
   -5.4697   -2.0143  -19.2728 H   0  0
   -5.9917   -0.3867  -18.7217 H   0  0
   -7.2079   -1.5659  -19.3174 H   0  0
   -7.2359   -1.4254  -16.8311 H   0  0
   -6.7140   -3.0537  -17.3814 H   0  0
   -3.1383   -1.7163  -15.0180 H   0  0
   -3.1104   -2.5044  -12.6658 H   0  0
   -7.2304   -3.7183  -13.0255 H   0  0
   -7.2615   -2.9133  -15.3720 H   0  0
   -5.6999   -4.4272  -11.1067 H   0  0
   -4.1629   -4.3941   -8.9077 H   0  0
   -5.5298   -3.2585   -8.6451 H   0  0
   -3.3202   -3.9819   -6.3119 H   0  0
   -4.6869   -2.8461   -6.0492 H   0  0
   -3.3616   -3.2124   -3.7212 H   0  0
   -0.5248   -0.4193    0.8712 H   0  0
    1.6273   -1.3094    0.6978 H   0  0
    1.8472   -0.6537   -0.9988 H   0  0
    3.2292    0.8758    0.2206 H   0  0
    2.1366    0.8109    1.6978 H   0  0
    1.3881    2.8335    0.6334 H   0  0
    1.6376    2.1478   -1.0309 H   0  0
  1  2  1  0
  2  3  1  0
  3  4  1  0
  4  9  2  0
  4  5  1  0
  5  6  2  0
  6  7  1  0
  7  8  2  0
  7 10  1  0
  8  9  1  0
 10 11  1  0
 11 12  2  0
 11 13  1  0
 13 14  1  0
 14 15  2  0
 14 16  2  0
 14 17  1  0
 17 18  1  0
 18 19  2  0
 18 20  1  0
 20 21  1  0
 21 25  1  0
 21 22  2  0
 22 23  1  0
 23 24  2  0
 24 25  1  0
 24 26  1  0
 26 30  1  0
 26 27  1  0
 27 28  1  0
 28 29  1  0
 29 30  1  0
  1 31  1  0
  1 32  1  0
  1 33  1  0
  2 34  1  0
  2 35  1  0
  5 36  1  0
  6 37  1  0
  8 38  1  0
  9 39  1  0
 10 40  1  0
 13 41  1  0
 13 42  1  0
 17 43  1  0
 17 44  1  0
 20 45  1  0
 26 46  1  0
 27 47  1  0
 27 48  1  0
 28 49  1  0
 28 50  1  0
 29 51  1  0
 29 52  1  0
M  END
> <Name>
ZINC20162135

> <reference>
BDB50038594

> <quality>
0.750

> <status>
decoy

$$$$
ZINC14965135
  SciTegic06061311263D

 61 62  0  0  0  0            999 V2000
    5.0696    1.8821   10.1563 C   0  0
    4.8879    2.4172    8.7344 C   0  0
    3.8568    1.5877    8.0135 C   0  0
    4.2586    0.5373    7.2080 C   0  0
    3.3252   -0.2357    6.5453 C   0  0
    1.9711    0.0419    6.6725 C   0  0
    1.5527    1.1101    7.4836 C   0  0
    2.5116    1.8839    8.1558 C   0  0
    2.1219    2.9185    8.9419 O   0  0
    2.0026    4.1984    8.3177 C   0  0
    0.1220    1.4147    7.6274 C   0  0
   -0.4144    2.1903    6.8603 O   0  0
    1.0344   -0.7328    6.0015 N   0  0
    1.2923   -2.3565    5.8026 S   0  0
    1.7145   -2.8580    7.0634 O   0  0
    0.1550   -2.8680    5.1213 O   0  0
    2.6595   -2.5363    4.7057 C   0  0
    3.8214   -3.1392    5.1428 C   0  0
    4.8940   -3.2863    4.2825 C   0  0
    4.8138   -2.8195    2.9801 C   0  0
    3.6575   -2.2094    2.5328 C   0  0
    2.5709   -2.0641    3.3958 C   0  0
    1.3306   -1.4130    2.9241 C   0  0
    0.8767   -1.6577    1.7029 C   0  0
    1.5385   -2.7089    0.8496 C   0  0
    1.0864   -4.5662   -0.6366 C   0  0
    1.4021   -3.7664   -1.9021 C   0  0
   -0.0306   -4.4317    1.5075 C   0  0
   -1.2195   -5.2616    1.0190 C   0  0
    5.8675   -2.9614    2.1465 F   0  0
   -0.5953    0.8339    8.6099 O   0  5
    0.5071   -3.6536    0.3716 N   0  3
    5.4055    0.8355   10.1152 H   0  0
    4.1125    1.9384   10.6955 H   0  0
    5.8222    2.4872   10.6831 H   0  0
    5.8450    2.3609    8.1951 H   0  0
    4.5517    3.4637    8.7765 H   0  0
    5.3301    0.3158    7.0943 H   0  0
    3.6560   -1.0741    5.9147 H   0  0
    1.2856    4.0746    7.4927 H   0  0
    2.9864    4.4216    7.8792 H   0  0
    1.6832    4.9847    9.0174 H   0  0
    0.1791   -0.2976    5.6274 H   0  0
    3.8945   -3.5036    6.1781 H   0  0
    5.8145   -3.7758    4.6333 H   0  0
    3.5939   -1.8392    1.4989 H   0  0
    0.7842   -0.7254    3.5864 H   0  0
    0.0170   -1.0935    1.3124 H   0  0
    2.2862   -3.2520    1.4462 H   0  0
    2.0266   -2.2302   -0.0122 H   0  0
    0.3626   -5.3599   -0.8735 H   0  0
    2.0110   -5.0118   -0.2410 H   0  0
    2.1261   -2.9714   -1.6700 H   0  0
    0.4794   -3.3197   -2.3009 H   0  0
    1.8339   -4.4393   -2.6576 H   0  0
    0.7509   -5.1002    1.8978 H   0  0
   -0.3620   -3.7446    2.3000 H   0  0
   -0.8925   -5.9506    0.2263 H   0  0
   -2.0033   -4.5960    0.6284 H   0  0
   -1.6250   -5.8437    1.8597 H   0  0
   -0.2602   -3.1202   -0.0615 H   0  0
  1  2  1  0
  2  3  1  0
  3  8  2  0
  3  4  1  0
  4  5  2  0
  5  6  1  0
  6  7  2  0
  6 13  1  0
  7  8  1  0
  7 11  1  0
  8  9  1  0
  9 10  1  0
 11 12  2  0
 11 31  1  0
 13 14  1  0
 14 15  2  0
 14 16  2  0
 14 17  1  0
 17 22  2  0
 17 18  1  0
 18 19  2  0
 19 20  1  0
 20 21  2  0
 20 30  1  0
 21 22  1  0
 22 23  1  0
 23 24  2  0
 24 25  1  0
 25 32  1  0
 26 27  1  0
 26 32  1  0
 28 29  1  0
 28 32  1  0
  1 33  1  0
  1 34  1  0
  1 35  1  0
  2 36  1  0
  2 37  1  0
  4 38  1  0
  5 39  1  0
 10 40  1  0
 10 41  1  0
 10 42  1  0
 13 43  1  0
 18 44  1  0
 19 45  1  0
 21 46  1  0
 23 47  1  0
 24 48  1  0
 25 49  1  0
 25 50  1  0
 26 51  1  0
 26 52  1  0
 27 53  1  0
 27 54  1  0
 27 55  1  0
 28 56  1  0
 28 57  1  0
 29 58  1  0
 29 59  1  0
 29 60  1  0
 32 61  1  0
M  CHG  2  31  -1  32   1
M  END
> <Name>
ZINC14965135

> <reference>
BDB50038594

> <quality>
0.749

> <status>
decoy

$$$$
ZINC11289675
  SciTegic06061311263D

 59 61  0  0  1  0            999 V2000
    5.0571   -1.3140    8.1049 C   0  0
    5.1486   -0.8961    6.6359 C   0  0
    5.3947   -3.1371    5.7527 C   0  0
    4.5700   -4.3205    5.3165 C   0  0
    5.2014   -5.5068    5.1123 N   0  0
    4.5057   -6.5994    4.7206 C   0  0
    5.0591   -7.6679    4.5346 O   0  0
    3.0576   -6.4472    4.5288 C   0  0
    2.2528   -7.5137    4.1269 C   0  0
    0.8973   -7.3186    3.9619 C   0  0
    0.3295   -6.0612    4.1940 C   0  0
    1.1145   -4.9967    4.5923 C   0  0
    2.4871   -5.1758    4.7646 C   0  0
    3.2919   -4.1566    5.1599 N   0  0
   -1.0068   -5.8856    4.0266 O   0  0
   -1.5261   -4.5785    4.2797 C   0  0
    0.1079   -8.3549    3.5712 O   0  0
    0.7500   -9.6124    3.3509 C   0  0
    4.2868   -1.4324    4.4377 C   0  0
    3.2272   -0.3625    4.4959 C   0  0
    2.7375   -0.0514    5.5608 O   0  0
    2.8238    0.2488    3.3645 N   0  0
    1.8470    1.2351    3.4182 C   0  0
    1.3236    1.5610    4.5896 N   0  0
    0.3869    2.4995    4.6789 C   0  0
   -0.0373    3.1446    3.5226 C   0  0
    0.5313    2.7716    2.3099 C   0  0
    1.4634    1.8244    2.2966 N   0  0
    0.1442    3.3701    1.1571 O   0  0
    0.7808    2.9342   -0.0457 C   0  0
   -0.1443    2.8271    5.8821 O   0  0
    0.3491    2.1218    7.0227 C   0  0
    4.5223   -1.9450    5.8039 N   0  0
    5.5877   -2.2656    8.2562 H   0  0
    4.0024   -1.4295    8.3954 H   0  0
    5.5214   -0.5381    8.7313 H   0  0
    4.6171    0.0558    6.4898 H   0  0
    6.2044   -0.7811    6.3496 H   0  0
    6.2079   -2.9673    5.0316 H   0  0
    5.8153   -3.3287    6.7509 H   0  0
    6.2189   -5.5747    5.2571 H   0  0
    2.6962   -8.5034    3.9429 H   0  0
    0.6591   -4.0118    4.7729 H   0  0
   -0.9802   -3.8944    3.6134 H   0  0
   -1.2509   -4.3316    5.3157 H   0  0
   -2.6131   -4.5149    4.1232 H   0  0
    1.2549   -9.8711    4.2933 H   0  0
    1.5250   -9.4349    2.5907 H   0  0
    0.0482  -10.3995    3.0379 H   0  0
    3.9458   -2.2538    3.7904 H   0  0
    5.2195   -1.0072    4.0387 H   0  0
    3.2398   -0.0153    2.4600 H   0  0
   -0.8047    3.9315    3.5662 H   0  0
    0.6003    1.8514   -0.1164 H   0  0
    1.8600    3.0875    0.1023 H   0  0
    0.4148    3.4649   -0.9370 H   0  0
    1.4360    2.2898    7.0440 H   0  0
    0.1765    1.0537    6.8245 H   0  0
   -0.1287    2.4422    7.9603 H   0  0
  1  2  1  0
  2 33  1  0
  3  4  1  0
  3 33  1  0
  4 14  2  0
  4  5  1  0
  5  6  1  0
  6  7  2  0
  6  8  1  0
  8 13  2  0
  8  9  1  0
  9 10  2  0
 10 11  1  0
 10 17  1  0
 11 12  2  0
 11 15  1  0
 12 13  1  0
 13 14  1  0
 15 16  1  0
 17 18  1  0
 19 20  1  0
 19 33  1  0
 20 21  2  0
 20 22  1  0
 22 23  1  0
 23 28  2  0
 23 24  1  0
 24 25  2  0
 25 26  1  0
 25 31  1  0
 26 27  2  0
 27 28  1  0
 27 29  1  0
 29 30  1  0
 31 32  1  0
  1 34  1  0
  1 35  1  0
  1 36  1  0
  2 37  1  0
  2 38  1  0
  3 39  1  0
  3 40  1  0
  5 41  1  0
  9 42  1  0
 12 43  1  0
 16 44  1  0
 16 45  1  0
 16 46  1  0
 18 47  1  0
 18 48  1  0
 18 49  1  0
 19 50  1  0
 19 51  1  0
 22 52  1  0
 26 53  1  0
 30 54  1  0
 30 55  1  0
 30 56  1  0
 32 57  1  0
 32 58  1  0
 32 59  1  0
M  END
> <Name>
ZINC11289675

> <reference>
BDB50038594

> <quality>
0.743

> <status>
decoy

$$$$
ZINC11717819
  SciTegic06061311263D

 55 57  0  0  0  0            999 V2000
    6.2525    1.4393    2.4235 C   0  0
    6.4462    2.7669    1.6882 C   0  0
    5.1012    3.3829    1.4010 C   0  0
    4.6919    4.6381    1.7578 N   0  0
    3.4143    4.7571    1.2911 C   0  0
    3.1143    3.6246    0.6987 N   0  0
    4.1129    2.8183    0.7668 N   0  0
    2.3642    6.1620    1.4588 S   0  0
    0.8880    5.5547    0.6054 C   0  0
   -0.1772    6.6206    0.6240 C   0  0
    0.0403    7.6860    1.1614 O   0  0
   -1.3715    6.3900    0.0436 N   0  0
   -2.3948    7.3417    0.1442 C   0  0
   -3.7181    6.9316    0.2384 C   0  0
   -4.7256    7.8698    0.3424 C   0  0
   -4.4170    9.2225    0.3418 C   0  0
   -3.0958    9.6330    0.2429 C   0  0
   -2.0866    8.6953    0.1441 C   0  0
   -2.7049   11.3511    0.2427 S   0  0
   -3.4027   11.9265    1.3388 O   0  0
   -1.2940   11.4466    0.1032 O   0  0
   -3.3615   12.0025   -1.1309 N   0  0
   -2.5916   12.0630   -2.3834 C   0  0
   -3.4571   11.4703   -3.5070 C   0  0
   -4.7294   12.1222   -3.5123 O   0  0
   -5.4894   11.9322   -2.3164 C   0  0
   -4.7300   12.5435   -1.1334 C   0  0
   -5.4101   10.1462    0.4385 O   0  0
   -6.7476    9.6528    0.5372 C   0  0
   -7.7195   10.8302    0.6369 C   0  0
    5.6627    0.7544    1.7966 H   0  0
    5.7219    1.6174    3.3704 H   0  0
    7.2339    0.9891    2.6335 H   0  0
    7.0358    3.4512    2.3159 H   0  0
    6.9768    2.5888    0.7412 H   0  0
    5.2347    5.3466    2.2719 H   0  0
    0.5135    4.6542    1.1141 H   0  0
    1.1417    5.3087   -0.4363 H   0  0
   -1.5320    5.5141   -0.4740 H   0  0
   -3.9636    5.8594    0.2302 H   0  0
   -5.7732    7.5448    0.4258 H   0  0
   -1.0389    9.0209    0.0654 H   0  0
   -1.6678   11.4748   -2.2802 H   0  0
   -2.3481   13.1097   -2.6182 H   0  0
   -2.9600   11.6275   -4.4756 H   0  0
   -3.5976   10.3930   -3.3346 H   0  0
   -6.4667   12.4264   -2.4196 H   0  0
   -5.6370   10.8564   -2.1406 H   0  0
   -5.2350   12.2761   -0.1935 H   0  0
   -4.6959   13.6375   -1.2432 H   0  0
   -6.9854    9.0564   -0.3560 H   0  0
   -6.8422    9.0233    1.4343 H   0  0
   -7.6271   11.4602   -0.2601 H   0  0
   -7.4830   11.4276    1.5297 H   0  0
   -8.7493   10.4511    0.7129 H   0  0
  1  2  1  0
  2  3  1  0
  3  7  2  0
  3  4  1  0
  4  5  1  0
  5  6  2  0
  5  8  1  0
  6  7  1  0
  8  9  1  0
  9 10  1  0
 10 11  2  0
 10 12  1  0
 12 13  1  0
 13 18  2  0
 13 14  1  0
 14 15  2  0
 15 16  1  0
 16 17  2  0
 16 28  1  0
 17 18  1  0
 17 19  1  0
 19 20  2  0
 19 21  2  0
 19 22  1  0
 22 27  1  0
 22 23  1  0
 23 24  1  0
 24 25  1  0
 25 26  1  0
 26 27  1  0
 28 29  1  0
 29 30  1  0
  1 31  1  0
  1 32  1  0
  1 33  1  0
  2 34  1  0
  2 35  1  0
  4 36  1  0
  9 37  1  0
  9 38  1  0
 12 39  1  0
 14 40  1  0
 15 41  1  0
 18 42  1  0
 23 43  1  0
 23 44  1  0
 24 45  1  0
 24 46  1  0
 26 47  1  0
 26 48  1  0
 27 49  1  0
 27 50  1  0
 29 51  1  0
 29 52  1  0
 30 53  1  0
 30 54  1  0
 30 55  1  0
M  END
> <Name>
ZINC11717819

> <reference>
BDB50038594

> <quality>
0.734

> <status>
decoy

$$$$
ZINC23561907
  SciTegic06061311263D

 58 60  0  0  1  0            999 V2000
    0.6314    2.8646   -2.8611 C   0  0
   -0.4169    3.3362   -1.8866 C   0  0
   -0.3330    3.3131   -0.4755 C   0  0
   -1.5137    3.8375   -0.0687 C   0  0
   -2.2023    4.1301   -1.1809 O   0  0
   -1.5767    3.8508   -2.1774 N   0  0
   -1.9645    4.0497    1.3535 C   0  0
    0.9988    2.7349    0.5229 S   0  0
    0.4415    2.3913    1.7841 O   0  0
    1.7251    1.8043   -0.2681 O   0  0
    2.0078    4.0214    0.7861 N   0  0
    1.5384    5.1745    1.5582 C   0  0
    2.7356    6.0322    1.9728 C   0  0
    2.2528    7.2184    2.7671 C   0  0
    1.0677    7.3635    2.9806 O   0  0
    3.1378    8.1180    3.2402 N   0  0
    2.6684    9.2712    4.0123 C   0  0
    3.8656   10.1289    4.4269 C   0  0  1  0  0  0
    3.3969   11.2460    5.3231 C   0  0
    2.5684   10.9703    6.3949 C   0  0
    2.1424   11.9932    7.2208 C   0  0
    2.5364   13.2962    6.9676 C   0  0
    3.3616   13.5719    5.8906 C   0  0
    3.7912   12.5466    5.0696 C   0  0
    2.1154   14.2978    7.7706 F   0  0
    4.8375    9.2969    5.1489 N   0  0
    4.2493    8.7470    6.3789 C   0  0
    5.2736    7.8410    7.0672 C   0  0
    6.4663    8.5873    7.3240 O   0  0
    7.0661    9.1367    6.1477 C   0  0
    6.0599   10.0559    5.4501 C   0  0
    0.7878    3.7529   -3.4907 H   0  0
    0.0737    2.1483   -3.4823 H   0  0
    1.5547    2.4560   -2.4245 H   0  0
   -1.1434    4.6500    1.7724 H   0  0
   -1.8508    3.0454    1.7876 H   0  0
   -2.9623    4.4909    1.4942 H   0  0
    2.9654    4.0108    0.4069 H   0  0
    0.8539    5.7751    0.9411 H   0  0
    1.0101    4.8246    2.4573 H   0  0
    3.2646    6.3840    1.0748 H   0  0
    3.4203    5.4323    2.5903 H   0  0
    4.1442    7.9948    3.0589 H   0  0
    1.9840    9.8718    3.3952 H   0  0
    2.1400    8.9214    4.9114 H   0  0
    4.3408   10.5531    3.5301 H   0  0
    2.2481    9.9363    6.5904 H   0  0
    1.4906   11.7723    8.0789 H   0  0
    3.6752   14.6067    5.6885 H   0  0
    4.4471   12.7654    4.2141 H   0  0
    3.3522    8.1617    6.1285 H   0  0
    3.9752    9.5703    7.0550 H   0  0
    4.8590    7.4737    8.0176 H   0  0
    5.5086    6.9879    6.4137 H   0  0
    7.9591    9.7153    6.4265 H   0  0
    7.3527    8.3226    5.4657 H   0  0
    6.4970   10.4349    4.5145 H   0  0
    5.8156   10.9005    6.1112 H   0  0
  1  2  1  0
  2  6  2  0
  2  3  1  0
  3  4  2  0
  3  8  1  0
  4  5  1  0
  4  7  1  0
  5  6  1  0
  8  9  2  0
  8 10  2  0
  8 11  1  0
 11 12  1  0
 12 13  1  0
 13 14  1  0
 14 15  2  0
 14 16  1  0
 16 17  1  0
 17 18  1  0
 18 19  1  0
 18 26  1  0
 19 24  2  0
 19 20  1  0
 20 21  2  0
 21 22  1  0
 22 23  2  0
 22 25  1  0
 23 24  1  0
 26 31  1  0
 26 27  1  0
 27 28  1  0
 28 29  1  0
 29 30  1  0
 30 31  1  0
  1 32  1  0
  1 33  1  0
  1 34  1  0
  7 35  1  0
  7 36  1  0
  7 37  1  0
 11 38  1  0
 12 39  1  0
 12 40  1  0
 13 41  1  0
 13 42  1  0
 16 43  1  0
 17 44  1  0
 17 45  1  0
 18 46  1  0
 20 47  1  0
 21 48  1  0
 23 49  1  0
 24 50  1  0
 27 51  1  0
 27 52  1  0
 28 53  1  0
 28 54  1  0
 30 55  1  0
 30 56  1  0
 31 57  1  0
 31 58  1  0
M  END
> <Name>
ZINC23561907

> <reference>
BDB50038594

> <quality>
0.732

> <status>
decoy

$$$$
ZINC10385950
  SciTegic06061311263D

 57 59  0  0  1  0            999 V2000
    0.0281    5.4238    0.0276 C   0  0
   -0.0107    3.9593    0.0216 N   0  0
   -1.2289    3.2990    0.0296 C   0  0
   -1.2373    1.9084    0.0182 C   0  0
   -0.0145    1.2145    0.0087 C   0  0
    0.0021   -0.0041    0.0020 O   0  0
    1.1404    1.9119    0.0014 N   0  0
    1.1374    3.2561    0.0078 C   0  0
    2.1976    3.8516    0.0005 O   0  0
    2.4170    1.1934   -0.0141 C   0  0
   -2.5720    1.5256    0.0221 N   0  0
   -3.3071    2.6690    0.0311 C   0  0
   -2.4982    3.7091    0.0420 N   0  0
   -4.6817    2.7305    0.0375 N   0  0
   -5.3566    4.0307    0.0470 C   0  0
   -6.8719    3.8187    0.0526 C   0  0
   -7.5768    5.1766    0.0626 C   0  0
   -8.9920    4.9786    0.0678 O   0  0
   -9.7485    6.1909    0.0772 C   0  0
   -3.0882    0.1546    0.0178 C   0  0
   -3.2617   -0.3296    1.4588 C   0  0  2  0  0  0
   -3.6813   -1.8009    1.4555 C   0  0
   -3.7304   -2.2853    2.7990 O   0  0
   -4.0891   -3.5846    2.9738 C   0  0
   -4.3932   -4.3750    1.8750 C   0  0
   -4.7530   -5.6966    2.0544 C   0  0
   -4.8204   -6.2293    3.3296 C   0  0
   -4.5225   -5.4411    4.4271 C   0  0
   -4.1572   -4.1204    4.2515 C   0  0
   -5.2786   -7.8888    3.5529 Cl  0  0
   -4.2685    0.4514    2.1057 O   0  0
    0.6130    5.6990   -0.8624 H   0  0
    0.6296    5.6913    0.9089 H   0  0
   -0.9655    5.8956    0.0389 H   0  0
    2.3758    0.5471   -0.9032 H   0  0
    2.3923    0.5382    0.8692 H   0  0
    3.2962    1.8544   -0.0190 H   0  0
   -5.2361    1.8624    0.0356 H   0  0
   -5.0619    4.5904    0.9469 H   0  0
   -5.0701    4.6004   -0.8493 H   0  0
   -7.1674    3.2594   -0.8474 H   0  0
   -7.1604    3.2501    0.9489 H   0  0
   -7.2821    5.7362    0.9626 H   0  0
   -7.2903    5.7463   -0.8337 H   0  0
   -9.4604    6.7684   -0.8136 H   0  0
   -9.4526    6.7595    0.9712 H   0  0
  -10.8304    5.9922    0.0809 H   0  0
   -4.0604    0.1303   -0.4962 H   0  0
   -2.3797   -0.5035   -0.5065 H   0  0
   -2.3098   -0.2211    1.9992 H   0  0
   -4.6755   -1.8977    0.9948 H   0  0
   -2.9518   -2.3901    0.8805 H   0  0
   -4.3478   -3.9496    0.8616 H   0  0
   -4.9861   -6.3259    1.1828 H   0  0
   -4.5766   -5.8664    5.4401 H   0  0
   -3.9205   -3.4941    5.1243 H   0  0
   -5.1257    0.3541    1.6201 H   0  0
  1  2  1  0
  2  8  1  0
  2  3  1  0
  3 13  1  0
  3  4  2  0
  4  5  1  0
  4 11  1  0
  5  6  2  0
  5  7  1  0
  7  8  1  0
  7 10  1  0
  8  9  2  0
 11 12  1  0
 11 20  1  0
 12 13  2  0
 12 14  1  0
 14 15  1  0
 15 16  1  0
 16 17  1  0
 17 18  1  0
 18 19  1  0
 20 21  1  0
 21 22  1  0
 21 31  1  0
 22 23  1  0
 23 24  1  0
 24 29  2  0
 24 25  1  0
 25 26  2  0
 26 27  1  0
 27 28  2  0
 27 30  1  0
 28 29  1  0
  1 32  1  0
  1 33  1  0
  1 34  1  0
 10 35  1  0
 10 36  1  0
 10 37  1  0
 14 38  1  0
 15 39  1  0
 15 40  1  0
 16 41  1  0
 16 42  1  0
 17 43  1  0
 17 44  1  0
 19 45  1  0
 19 46  1  0
 19 47  1  0
 20 48  1  0
 20 49  1  0
 21 50  1  0
 22 51  1  0
 22 52  1  0
 25 53  1  0
 26 54  1  0
 28 55  1  0
 29 56  1  0
 31 57  1  0
M  END
> <Name>
ZINC10385950

> <reference>
BDB50038594

> <quality>
0.730

> <status>
decoy

$$$$
ZINC15409333
  SciTegic06061311263D

 52 54  0  0  1  0            999 V2000
    4.6796    2.2722   -3.2702 C   0  0
    3.8020    1.3285   -2.4455 C   0  0
    2.9184    2.0952   -1.6249 O   0  0
    2.0646    1.4042   -0.8238 C   0  0
    2.0769    0.0183   -0.8274 C   0  0
    1.2079   -0.6827   -0.0127 C   0  0
    0.3245   -0.0049    0.8076 C   0  0
    0.3061    1.3767    0.8169 C   0  0
    1.1752    2.0872    0.0020 C   0  0
    1.1586    3.4904    0.0102 N   0  0
    0.0750    4.3021   -0.0740 C   0  0
    0.5163    5.5407   -0.0256 N   0  0
    1.7965    5.5586    0.0734 N   0  0
    2.2619    4.3570    0.1013 N   0  0
   -1.6060    3.7939   -0.2172 S   0  0
   -2.4193    5.4099   -0.2732 C   0  0
   -3.9089    5.2186   -0.3983 C   0  0
   -4.3748    4.0998   -0.4450 O   0  0
   -4.7233    6.2907   -0.4583 N   0  0
   -6.1081    6.1128   -0.5746 N   0  0
   -6.9226    7.1850   -0.6346 C   0  0
   -6.4567    8.3038   -0.5879 O   0  0
   -8.4122    6.9936   -0.7596 C   0  0
   -9.0996    8.3597   -0.8070 C   0  0  2  0  0  0
   -8.9252    9.0759    0.5425 C   0  0
   -9.8729   10.2972    0.6181 C   0  0
  -11.2648    9.7966   -0.4749 S   0  0
  -11.3335   10.6926   -1.5757 O   0  0
  -12.4217    9.5756    0.3201 O   0  0
  -10.6224    8.1728   -1.0628 C   0  0
    5.2685    2.9106   -2.5952 H   0  0
    4.0430    2.9031   -3.9079 H   0  0
    5.3601    1.6826   -3.9022 H   0  0
    3.2132    0.6908   -3.1213 H   0  0
    4.4386    0.6975   -1.8078 H   0  0
    2.7783   -0.5238   -1.4787 H   0  0
    1.2189   -1.7826   -0.0168 H   0  0
   -0.3652   -0.5671    1.4543 H   0  0
   -0.3976    1.9131    1.4704 H   0  0
   -2.0493    5.9780   -1.1394 H   0  0
   -2.1976    5.9642    0.6507 H   0  0
   -4.3277    7.2409   -0.4187 H   0  0
   -6.5037    5.1626   -0.6142 H   0  0
   -8.7841    6.4267    0.1066 H   0  0
   -8.6346    6.4396   -1.6835 H   0  0
   -8.6476    8.9538   -1.6149 H   0  0
   -7.8839    9.4153    0.6456 H   0  0
   -9.1623    8.3788    1.3597 H   0  0
  -10.2377   10.4399    1.6460 H   0  0
   -9.3823   11.1937    0.2111 H   0  0
  -10.8270    8.0551   -2.1372 H   0  0
  -11.0279    7.3615   -0.4404 H   0  0
  1  2  1  0
  2  3  1  0
  3  4  1  0
  4  9  2  0
  4  5  1  0
  5  6  2  0
  6  7  1  0
  7  8  2  0
  8  9  1  0
  9 10  1  0
 10 14  1  0
 10 11  1  0
 11 12  2  0
 11 15  1  0
 12 13  1  0
 13 14  2  0
 15 16  1  0
 16 17  1  0
 17 18  2  0
 17 19  1  0
 19 20  1  0
 20 21  1  0
 21 22  2  0
 21 23  1  0
 23 24  1  0
 24 30  1  0
 24 25  1  0
 25 26  1  0
 26 27  1  0
 27 28  2  0
 27 29  2  0
 27 30  1  0
  1 31  1  0
  1 32  1  0
  1 33  1  0
  2 34  1  0
  2 35  1  0
  5 36  1  0
  6 37  1  0
  7 38  1  0
  8 39  1  0
 16 40  1  0
 16 41  1  0
 19 42  1  0
 20 43  1  0
 23 44  1  0
 23 45  1  0
 24 46  1  0
 25 47  1  0
 25 48  1  0
 26 49  1  0
 26 50  1  0
 30 51  1  0
 30 52  1  0
M  END
> <Name>
ZINC15409333

> <reference>
BDB50038594

> <quality>
0.729

> <status>
decoy

$$$$
ZINC29258971
  SciTegic06061311263D

 52 54  0  0  0  0            999 V2000
    0.2860   15.4074   -0.8007 C   0  0
   -0.2348   14.6545    0.4252 C   0  0
   -0.1297   13.2246    0.1958 O   0  0
   -0.5480   12.4167    1.1827 C   0  0
   -0.9875   12.8887    2.2045 O   0  0
   -0.4696   10.9210    1.0163 C   0  0
   -1.1050   10.1122    2.5106 S   0  0
   -0.9482    8.3919    2.1636 C   0  0
   -0.4839    7.7793    1.0843 N   0  0
   -0.4414    6.5218    0.9977 N   0  0
   -0.8572    5.7369    1.9780 C   0  0
   -1.3784    6.9715    3.1654 S   0  0
   -0.8869    4.3469    2.0605 N   0  0
   -0.4427    3.6010    1.0296 C   0  0
   -0.0171    4.1403    0.0299 O   0  0
   -0.4748    2.0970    1.1188 C   0  0
    0.0811    1.4974   -0.1744 C   0  0
    0.0490   -0.0066   -0.0852 C   0  0
   -1.0135   -0.6942   -0.5805 C   0  0
   -1.0243   -2.1048   -0.4869 C   0  0
   -1.9476   -3.0981   -0.8890 C   0  0
   -1.4617   -4.2611   -0.5583 N   0  0
   -0.2203   -4.0859    0.0643 N   0  0
    0.0525   -2.7640    0.1105 C   0  0
    1.1078   -2.0422    0.5997 N   0  0
    1.1215   -0.6992    0.5057 C   0  0
    2.0738   -0.0747    0.9430 O   0  0
    0.6382   -5.1559    0.5785 C   0  0
   -3.2642   -2.8538   -1.5803 C   0  0
   -2.1646    0.0372   -1.2215 C   0  0
   -0.3123   15.1332   -1.6821 H   0  0
    1.3389   15.1413   -0.9757 H   0  0
    0.2066   16.4908   -0.6275 H   0  0
    0.3642   14.9290    1.3060 H   0  0
   -1.2877   14.9206    0.6003 H   0  0
   -1.0745   10.6161    0.1497 H   0  0
    0.5771   10.6231    0.8560 H   0  0
   -1.2483    3.8890    2.9094 H   0  0
    0.1398    1.7668    1.9692 H   0  0
   -1.5117    1.7591    1.2626 H   0  0
   -0.5333    1.8269   -1.0253 H   0  0
    1.1185    1.8333   -0.3193 H   0  0
    1.8984   -2.5309    1.0436 H   0  0
    0.7602   -5.8063   -0.3002 H   0  0
   -0.0367   -5.6969    1.2581 H   0  0
    1.5872   -4.8488    1.0423 H   0  0
   -2.9651   -2.2592   -2.4561 H   0  0
   -3.7623   -2.1486   -0.8987 H   0  0
   -3.8651   -3.7421   -1.8248 H   0  0
   -1.7091    0.6323   -2.0267 H   0  0
   -2.5141    0.7435   -0.4541 H   0  0
   -2.9662   -0.6225   -1.5852 H   0  0
  1  2  1  0
  2  3  1  0
  3  4  1  0
  4  5  2  0
  4  6  1  0
  6  7  1  0
  7  8  1  0
  8 12  1  0
  8  9  2  0
  9 10  1  0
 10 11  2  0
 11 12  1  0
 11 13  1  0
 13 14  1  0
 14 15  2  0
 14 16  1  0
 16 17  1  0
 17 18  1  0
 18 26  1  0
 18 19  2  0
 19 20  1  0
 19 30  1  0
 20 24  2  0
 20 21  1  0
 21 22  2  0
 21 29  1  0
 22 23  1  0
 23 24  1  0
 23 28  1  0
 24 25  1  0
 25 26  1  0
 26 27  2  0
  1 31  1  0
  1 32  1  0
  1 33  1  0
  2 34  1  0
  2 35  1  0
  6 36  1  0
  6 37  1  0
 13 38  1  0
 16 39  1  0
 16 40  1  0
 17 41  1  0
 17 42  1  0
 25 43  1  0
 28 44  1  0
 28 45  1  0
 28 46  1  0
 29 47  1  0
 29 48  1  0
 29 49  1  0
 30 50  1  0
 30 51  1  0
 30 52  1  0
M  END
> <Name>
ZINC29258971

> <reference>
BDB50038594

> <quality>
0.728

> <status>
decoy

$$$$
ZINC09367499
  SciTegic06061311263D

 50 51  0  0  0  0            999 V2000
   -8.3952    8.6817   10.6179 C   0  0
   -6.9492    9.4222   11.4250 S   0  0
   -7.2744    9.8085   12.7533 O   0  0
   -6.3087   10.3328   10.5420 O   0  0
   -5.8738    8.1750   11.5990 N   0  0
   -5.3399    7.5566   10.4758 C   0  0
   -4.3513    8.1988    9.7334 C   0  0
   -3.8230    7.5941    8.6290 C   0  0
   -4.2769    6.3261    8.2425 C   0  0
   -5.2757    5.6866    8.9885 C   0  0
   -5.7941    6.2958   10.0951 C   0  0
   -3.7120    5.6723    7.0563 C   0  0
   -2.8508    6.2297    6.4088 O   0  0
   -4.2018    4.3085    6.6426 C   0  0
   -3.4938    3.8815    5.4490 O   0  0
   -3.8162    2.6743    4.9456 C   0  0
   -4.6656    1.9969    5.4888 O   0  0
   -3.1369    2.1743    3.7328 C   0  0
   -3.4687    0.9235    3.2084 C   0  0
   -2.8307    0.4630    2.0754 C   0  0
   -1.8639    1.2374    1.4588 C   0  0
   -1.5265    2.4755    1.9762 C   0  0
   -2.1603    2.9506    3.1056 C   0  0
   -1.0536    0.6410    0.0123 S   0  0
   -1.1538   -0.7760    0.0457 O   0  0
    0.1954    1.3149   -0.0606 O   0  0
   -1.9415    1.1477   -1.2904 N   0  0
   -2.0586    2.5779   -1.5855 C   0  0
   -2.5852    2.7605   -2.9857 C   0  0
   -3.6588    3.4820   -3.1928 C   0  0
   -9.2137    9.4162   10.5954 H   0  0
   -8.7155    7.7973   11.1882 H   0  0
   -8.1358    8.3854    9.5908 H   0  0
   -5.6009    7.8579   12.5402 H   0  0
   -3.9958    9.1944   10.0374 H   0  0
   -3.0422    8.1017    8.0436 H   0  0
   -5.6417    4.6952    8.6832 H   0  0
   -6.5715    5.7903   10.6868 H   0  0
   -4.0165    3.5902    7.4549 H   0  0
   -5.2805    4.3534    6.4318 H   0  0
   -4.2370    0.3068    3.6976 H   0  0
   -3.0911   -0.5222    1.6611 H   0  0
   -0.7511    3.0824    1.4858 H   0  0
   -1.8970    3.9386    3.5111 H   0  0
   -2.4115    0.4573   -1.8932 H   0  0
   -1.0700    3.0529   -1.5015 H   0  0
   -2.7516    3.0445   -0.8700 H   0  0
   -2.0681    2.2879   -3.8338 H   0  0
   -4.1760    3.9546   -2.3447 H   0  0
   -4.0432    3.6153   -4.2148 H   0  0
  1  2  1  0
  2  3  2  0
  2  4  2  0
  2  5  1  0
  5  6  1  0
  6 11  2  0
  6  7  1  0
  7  8  2  0
  8  9  1  0
  9 10  2  0
  9 12  1  0
 10 11  1  0
 12 13  2  0
 12 14  1  0
 14 15  1  0
 15 16  1  0
 16 17  2  0
 16 18  1  0
 18 23  2  0
 18 19  1  0
 19 20  2  0
 20 21  1  0
 21 22  2  0
 21 24  1  0
 22 23  1  0
 24 25  2  0
 24 26  2  0
 24 27  1  0
 27 28  1  0
 28 29  1  0
 29 30  2  0
  1 31  1  0
  1 32  1  0
  1 33  1  0
  5 34  1  0
  7 35  1  0
  8 36  1  0
 10 37  1  0
 11 38  1  0
 14 39  1  0
 14 40  1  0
 19 41  1  0
 20 42  1  0
 22 43  1  0
 23 44  1  0
 27 45  1  0
 28 46  1  0
 28 47  1  0
 29 48  1  0
 30 49  1  0
 30 50  1  0
M  END
> <Name>
ZINC09367499

> <reference>
BDB50038594

> <quality>
0.727

> <status>
decoy

$$$$
ZINC10983068
  SciTegic06061311263D

 49 50  0  0  0  0            999 V2000
    6.2358   16.8290    1.2606 C   0  0
    7.1273   15.6158    1.1931 C   0  0
    8.5059   15.6239    1.2401 C   0  0
    8.9190   14.2717    1.1445 C   0  0
    7.7821   13.5229    1.0457 C   0  0
    6.7171   14.3505    1.0715 O   0  0
    7.7295   12.1119    0.9292 C   0  0
    6.5309   11.4830    0.8381 C   0  0
    6.4785   10.0750    0.7219 C   0  0
    7.5085    9.4272    0.7036 O   0  0
    5.2858    9.4493    0.6312 O   0  0
    5.3076    8.0251    0.5162 C   0  0
    3.8953    7.5067    0.4269 C   0  0
    2.9621    8.2807    0.4586 O   0  0
    3.6694    6.1830    0.3117 N   0  0
    2.2965    5.6791    0.2249 C   0  0
    2.3194    4.1772    0.1036 C   0  0
    3.3784    3.5859    0.0909 O   0  0
    1.1632    3.4910    0.0092 N   0  0
    1.1777    2.0896    0.0133 C   0  0
    2.2303    1.4073    0.6078 C   0  0
    2.2440    0.0257    0.6114 C   0  0
    1.2095   -0.6805    0.0219 C   0  0
    0.1564   -0.0034   -0.5735 C   0  0
    0.1388    1.3813   -0.5788 C   0  0
   -0.8840    2.0426   -1.1635 F   0  0
   -0.8521   -0.6942   -1.1487 F   0  0
    1.2265   -2.0314    0.0264 F   0  0
    9.3773   16.8058    1.3644 C   0  0
    8.8886   17.9160    1.4375 O   0  0
   10.7160   16.6554    1.3969 O   0  0
   11.5122   17.8633    1.5207 C   0  0
    5.5628   16.5899    2.0972 H   0  0
    5.6297   16.7364    0.3473 H   0  0
    6.7448   17.7989    1.3612 H   0  0
    9.9537   13.8985    1.1490 H   0  0
    8.6605   11.5263    0.9126 H   0  0
    5.5999   12.0686    0.8546 H   0  0
    5.8011    7.5923    1.3989 H   0  0
    5.8607    7.7387   -0.3904 H   0  0
    4.4619    5.5257    0.2847 H   0  0
    1.8017    6.1100   -0.6580 H   0  0
    1.7429    5.9648    1.1315 H   0  0
    0.2690    3.9966   -0.0660 H   0  0
    3.0536    1.9666    1.0761 H   0  0
    3.0782   -0.5140    1.0834 H   0  0
   11.1777   18.3618    2.4424 H   0  0
   11.2367   18.5045    0.6704 H   0  0
   12.5928   17.6584    1.5402 H   0  0
  1  2  1  0
  2  6  1  0
  2  3  2  0
  3  4  1  0
  3 29  1  0
  4  5  2  0
  5  6  1  0
  5  7  1  0
  7  8  2  0
  8  9  1  0
  9 10  2  0
  9 11  1  0
 11 12  1  0
 12 13  1  0
 13 14  2  0
 13 15  1  0
 15 16  1  0
 16 17  1  0
 17 18  2  0
 17 19  1  0
 19 20  1  0
 20 25  2  0
 20 21  1  0
 21 22  2  0
 22 23  1  0
 23 24  2  0
 23 28  1  0
 24 25  1  0
 24 27  1  0
 25 26  1  0
 29 30  2  0
 29 31  1  0
 31 32  1  0
  1 33  1  0
  1 34  1  0
  1 35  1  0
  4 36  1  0
  7 37  1  0
  8 38  1  0
 12 39  1  0
 12 40  1  0
 15 41  1  0
 16 42  1  0
 16 43  1  0
 19 44  1  0
 21 45  1  0
 22 46  1  0
 32 47  1  0
 32 48  1  0
 32 49  1  0
M  END
> <Name>
ZINC10983068

> <reference>
BDB50038594

> <quality>
0.726

> <status>
decoy

$$$$
ZINC31230685
  SciTegic06061311263D

 59 61  0  0  1  0            999 V2000
   -4.8466   -6.3991   -2.7173 C   0  0
   -4.1142   -6.7747   -1.4275 C   0  0
   -3.0752   -5.7803   -1.1485 N   0  0
   -1.7228   -5.9650   -1.6806 C   0  0
   -0.8814   -6.7510   -0.6731 C   0  0
   -3.3670   -4.6825   -0.3935 C   0  0
   -4.5275   -4.3666    0.1583 N   0  0
   -4.7337   -3.2918    0.8728 C   0  0
   -5.8104   -3.0241    1.3694 O   0  0
   -3.5049   -2.4039    1.0283 C   0  5
   -2.2979   -3.3904    0.0562 S   0  0
   -3.7297   -1.0246    0.4054 C   0  0
   -2.4624   -0.2154    0.5058 C   0  0
   -1.4763   -0.6947    1.0246 O   0  0
   -2.4246    1.0409    0.0192 N   0  0
   -1.2196    1.7526    0.0121 C   0  0
   -1.2247    3.1297    0.2005 C   0  0
   -0.0379    3.8380    0.1886 C   0  0
    1.1608    3.1818   -0.0047 C   0  0
    1.1772    1.7983   -0.1891 C   0  0
   -0.0207    1.0836   -0.1771 C   0  0
    2.4600    1.0927   -0.3960 C   0  0
    2.4720   -0.1122   -0.5559 O   0  0
    3.6160    1.7855   -0.4071 N   0  0
    4.8870    1.0863   -0.6121 C   0  0  2  0  0  0
    5.3938    0.5465    0.7268 C   0  0
    5.9161    2.0585   -1.1925 C   0  0
    5.4878    2.4834   -2.5275 N   0  0
    5.3171    3.7574   -2.9384 C   0  0
    4.9210    3.7240   -4.2319 C   0  0
    4.8378    2.3833   -4.6220 C   0  0
    5.1774    1.6388   -3.6011 N   0  0
   -4.1310   -6.3734   -3.5523 H   0  0
   -5.3100   -5.4082   -2.6017 H   0  0
   -5.6269   -7.1454   -2.9273 H   0  0
   -4.8304   -6.7999   -0.5930 H   0  0
   -3.6508   -7.7656   -1.5429 H   0  0
   -1.7742   -6.5217   -2.6280 H   0  0
   -1.2596   -4.9830   -1.8569 H   0  0
   -1.3425   -7.7339   -0.4964 H   0  0
   -0.8290   -6.1955    0.2749 H   0  0
    0.1342   -6.8901   -1.0720 H   0  0
   -4.5383   -0.5063    0.9416 H   0  0
   -4.0071   -1.1408   -0.6527 H   0  0
   -3.2826    1.4772   -0.3474 H   0  0
   -2.1765    3.6576    0.3596 H   0  0
   -0.0488    4.9283    0.3337 H   0  0
    2.1032    3.7491   -0.0134 H   0  0
   -0.0138   -0.0074   -0.3173 H   0  0
    3.6059    2.8065   -0.2715 H   0  0
    4.7371    0.2505   -1.3114 H   0  0
    4.6547   -0.1528    1.1448 H   0  0
    5.5443    1.3816    1.4267 H   0  0
    6.3481    0.0214    0.5736 H   0  0
    5.9997    2.9383   -0.5375 H   0  0
    6.8940    1.5598   -1.2634 H   0  0
    5.4722    4.6611   -2.3307 H   0  0
    4.7030    4.5969   -4.8647 H   0  0
    4.5385    2.0180   -5.6155 H   0  0
  1  2  1  0
  2  3  1  0
  3  4  1  0
  3  6  1  0
  4  5  1  0
  6 11  1  0
  6  7  2  0
  7  8  1  0
  8  9  2  0
  8 10  1  0
 10 11  1  0
 10 12  1  0
 12 13  1  0
 13 14  2  0
 13 15  1  0
 15 16  1  0
 16 21  2  0
 16 17  1  0
 17 18  2  0
 18 19  1  0
 19 20  2  0
 20 21  1  0
 20 22  1  0
 22 23  2  0
 22 24  1  0
 24 25  1  0
 25 26  1  0
 25 27  1  0
 27 28  1  0
 28 32  1  0
 28 29  1  0
 29 30  2  0
 30 31  1  0
 31 32  2  0
  1 33  1  0
  1 34  1  0
  1 35  1  0
  2 36  1  0
  2 37  1  0
  4 38  1  0
  4 39  1  0
  5 40  1  0
  5 41  1  0
  5 42  1  0
 12 43  1  0
 12 44  1  0
 15 45  1  0
 17 46  1  0
 18 47  1  0
 19 48  1  0
 21 49  1  0
 24 50  1  0
 25 51  1  0
 26 52  1  0
 26 53  1  0
 26 54  1  0
 27 55  1  0
 27 56  1  0
 29 57  1  0
 30 58  1  0
 31 59  1  0
M  CHG  1  10  -1
M  END
> <Name>
ZINC31230685

> <reference>
BDB50038594

> <quality>
0.725

> <status>
decoy

$$$$
ZINC26341307
  SciTegic06061311263D

 57 58  0  0  1  0            999 V2000
   -1.2550    1.1946   -0.1320 C   0  0
   -0.5790   -0.1506   -0.0659 C   0  0
   -0.5449   -0.8494    1.1252 C   0  0
    0.0742   -2.0841    1.1865 C   0  0
    0.6612   -2.6236    0.0563 C   0  0
    0.6314   -1.9296   -1.1372 C   0  0
    0.0052   -0.6916   -1.2034 C   0  0
   -0.0327    0.0111   -2.4128 N   0  0
    0.0614   -0.6534   -3.5816 C   0  0
    0.0780   -1.8661   -3.5900 O   0  0
    0.1460    0.1104   -4.8779 C   0  0  2  0  0  0
   -1.2541    0.5661   -5.2937 C   0  0
    0.8393   -0.9584   -6.1637 S   0  0
    0.9645    0.1975   -7.4877 C   0  0
    0.6153    1.4506   -7.4372 N   0  0
    0.8754    2.0243   -8.6894 N   0  0
    1.3828    1.0558   -9.4796 C   0  0
    1.7252    1.1811  -10.6421 O   0  0
    1.4425   -0.0756   -8.7494 N   0  0
    1.9330   -1.3740   -9.2182 C   0  0
    0.7714   -2.1744   -9.8107 C   0  0
    1.2837   -3.5304  -10.3003 C   0  0
    0.1988   -4.2779  -10.8536 O   0  0
    0.5716   -5.5677  -11.3431 C   0  0
    1.4485   -4.1977    0.1396 S   0  0
    2.3952   -4.2349   -0.9195 O   0  0
    1.8165   -4.3964    1.4977 O   0  0
    0.3006   -5.3385   -0.2114 N   0  0
    0.0875   -5.7608   -1.5980 C   0  0
   -0.5020   -5.9253    0.8646 C   0  0
   -2.0151    1.0934   -0.9207 H   0  0
   -0.4846    1.8827   -0.5100 H   0  0
   -1.6829    1.5261    0.8256 H   0  0
   -1.0108   -0.4231    2.0259 H   0  0
    0.1000   -2.6386    2.1362 H   0  0
    1.1031   -2.3568   -2.0345 H   0  0
   -0.1325    1.0362   -2.4098 H   0  0
    0.7930    0.9898   -4.7438 H   0  0
   -1.6763    1.2159   -4.5130 H   0  0
   -1.9019   -0.3126   -5.4283 H   0  0
   -1.1930    1.1237   -6.2399 H   0  0
    2.3654    1.9344  -10.5901 H   0  0
    2.7018   -1.2190   -9.9895 H   0  0
    2.3673   -1.9297   -8.3741 H   0  0
    0.0024   -2.3302   -9.0398 H   0  0
    0.3365   -1.6207  -10.6559 H   0  0
    2.0525   -3.3753  -11.0716 H   0  0
    1.7180   -4.0861   -9.4561 H   0  0
    1.0138   -6.1256  -10.5045 H   0  0
    1.3464   -5.4202  -12.1098 H   0  0
   -0.2920   -6.1072  -11.7592 H   0  0
    1.0773   -6.1000   -1.9374 H   0  0
   -0.1253   -4.8276   -2.1401 H   0  0
   -0.6944   -6.5219   -1.7371 H   0  0
   -0.9644   -5.0618    1.3651 H   0  0
    0.2382   -6.3342    1.5681 H   0  0
   -1.2393   -6.6740    0.5392 H   0  0
  1  2  1  0
  2  7  2  0
  2  3  1  0
  3  4  2  0
  4  5  1  0
  5  6  2  0
  5 25  1  0
  6  7  1  0
  7  8  1  0
  8  9  1  0
  9 10  2  0
  9 11  1  0
 11 12  1  0
 11 13  1  0
 13 14  1  0
 14 19  1  0
 14 15  2  0
 15 16  1  0
 16 17  2  0
 17 18  1  0
 17 19  1  0
 19 20  1  0
 20 21  1  0
 21 22  1  0
 22 23  1  0
 23 24  1  0
 25 26  2  0
 25 27  2  0
 25 28  1  0
 28 29  1  0
 28 30  1  0
  1 31  1  0
  1 32  1  0
  1 33  1  0
  3 34  1  0
  4 35  1  0
  6 36  1  0
  8 37  1  0
 11 38  1  0
 12 39  1  0
 12 40  1  0
 12 41  1  0
 18 42  1  0
 20 43  1  0
 20 44  1  0
 21 45  1  0
 21 46  1  0
 22 47  1  0
 22 48  1  0
 24 49  1  0
 24 50  1  0
 24 51  1  0
 29 52  1  0
 29 53  1  0
 29 54  1  0
 30 55  1  0
 30 56  1  0
 30 57  1  0
M  END
> <Name>
ZINC26341307

> <reference>
BDB50038594

> <quality>
0.723

> <status>
decoy

$$$$
ZINC09588012
  SciTegic06061311263D

 54 56  0  0  0  0            999 V2000
    1.1736    1.7941    0.0005 C   0  0
   -0.0126    1.0758    0.0080 C   0  0
   -1.2136    1.7592    0.0173 C   0  0
   -1.2394    3.0777    0.0305 N   0  0
   -0.1317    3.7930    0.0238 C   0  0
    1.1065    3.1788    0.0086 C   0  0
   -0.2167    5.2976    0.0322 C   0  0
   -0.3778    5.7853   -1.3398 N   0  0
   -0.8667    7.3438   -1.6125 S   0  0
   -0.9375    7.4594   -3.0270 O   0  0
   -2.0308    7.5037   -0.8134 O   0  0
    0.4799    8.3743   -0.9681 C   0  0
    0.1331    9.8509   -1.1690 C   0  0
    1.2207   10.6831   -0.6485 N   0  0
    1.1340   12.0263   -0.7183 C   0  0
    0.1534   12.5471   -1.2130 O   0  0
    2.2315   12.8662   -0.1931 C   0  0
    3.3562   12.2714    0.3809 C   0  0
    4.3792   13.0607    0.8643 C   0  0
    4.2870   14.4393    0.7911 C   0  0
    3.1723   15.0354    0.2286 C   0  0
    2.1449   14.2575   -0.2638 C   0  0
    5.5953   15.4403    1.4166 S   0  0
    6.7668   14.6363    1.3970 O   0  0
    5.5145   16.6855    0.7368 O   0  0
    5.2586   15.7474    3.0086 N   0  0
    4.4891   16.8927    3.5162 C   0  0
    4.4547   16.7761    5.0546 C   0  0
    5.6903   15.8892    5.3615 C   0  0
    5.6863   14.9211    4.1522 C   0  0
    2.1447    1.2775   -0.0116 H   0  0
    0.0023   -0.0241    0.0066 H   0  0
   -2.1591    1.1970    0.0137 H   0  0
    2.0270    3.7811    0.0030 H   0  0
    0.7049    5.7156    0.4633 H   0  0
   -1.0800    5.6128    0.6366 H   0  0
   -0.1870    5.1588   -2.1348 H   0  0
    0.6149    8.1726    0.1048 H   0  0
    1.4110    8.1407   -1.5052 H   0  0
   -0.0016   10.0534   -2.2418 H   0  0
   -0.7973   10.0866   -0.6316 H   0  0
    2.0515   10.2417   -0.2292 H   0  0
    3.4267   11.1757    0.4477 H   0  0
    5.2701   12.5931    1.3089 H   0  0
    3.1051   16.1320    0.1739 H   0  0
    1.2594   14.7326   -0.7112 H   0  0
    3.4639   16.8596    3.1189 H   0  0
    4.9834   17.8317    3.2264 H   0  0
    4.5746   17.7679    5.5150 H   0  0
    3.5335   16.2701    5.3792 H   0  0
    5.5406   15.3322    6.2982 H   0  0
    6.6074   16.4965    5.3628 H   0  0
    6.7002   14.5307    3.9803 H   0  0
    4.9645   14.1089    4.3235 H   0  0
  1  6  2  0
  1  2  1  0
  2  3  2  0
  3  4  1  0
  4  5  2  0
  5  6  1  0
  5  7  1  0
  7  8  1  0
  8  9  1  0
  9 10  2  0
  9 11  2  0
  9 12  1  0
 12 13  1  0
 13 14  1  0
 14 15  1  0
 15 16  2  0
 15 17  1  0
 17 22  2  0
 17 18  1  0
 18 19  2  0
 19 20  1  0
 20 21  2  0
 20 23  1  0
 21 22  1  0
 23 24  2  0
 23 25  2  0
 23 26  1  0
 26 30  1  0
 26 27  1  0
 27 28  1  0
 28 29  1  0
 29 30  1  0
  1 31  1  0
  2 32  1  0
  3 33  1  0
  6 34  1  0
  7 35  1  0
  7 36  1  0
  8 37  1  0
 12 38  1  0
 12 39  1  0
 13 40  1  0
 13 41  1  0
 14 42  1  0
 18 43  1  0
 19 44  1  0
 21 45  1  0
 22 46  1  0
 27 47  1  0
 27 48  1  0
 28 49  1  0
 28 50  1  0
 29 51  1  0
 29 52  1  0
 30 53  1  0
 30 54  1  0
M  END
> <Name>
ZINC09588012

> <reference>
BDB50038594

> <quality>
0.720

> <status>
decoy

$$$$
ZINC28954398
  SciTegic06061311263D

 60 62  0  0  1  0            999 V2000
   -0.9510    2.6304   -6.8275 C   0  0
   -1.5707    2.8923   -5.4534 C   0  0  2  0  0  0
   -0.5298    2.7424   -4.3616 C   0  0
    0.4838    3.3926   -4.2220 O   0  0
   -0.9661    1.7364   -3.5781 N   0  0
   -2.1232    1.2319   -4.0213 C   0  0
   -2.7106    0.3143   -3.4826 O   0  0
   -2.5658    1.8562   -5.1277 N   0  5
   -0.2884    1.2723   -2.4431 N   0  0
   -0.7416    1.5850   -1.2129 C   0  0
   -1.7359    2.2682   -1.0884 O   0  0
   -0.0127    1.0858    0.0080 C   0  0
   -0.7003    1.5596    1.2166 N   0  0
   -2.0341    0.9554    1.3345 C   0  0
    0.1045    1.2971    2.4172 C   0  0
   -0.5076    2.0069    3.5973 C   0  0
   -0.1168    3.2969    3.9054 C   0  0
   -0.6805    3.9517    4.9833 C   0  0
   -1.6315    3.3100    5.7634 C   0  0
   -2.0178    2.0136    5.4555 C   0  0
   -1.4548    1.3649    4.3734 C   0  0
   -2.1835    3.9501    6.8276 O   0  0
   -1.7382    5.2833    7.0851 C   0  0
   -2.4549    5.8275    8.2939 C   0  0
   -1.7850    6.4699    9.2184 C   0  0
   -2.1964    4.2624   -5.4048 C   0  0
   -1.4646    5.3393   -4.9396 C   0  0
   -2.0340    6.5973   -4.8994 C   0  0
   -3.3452    6.7774   -5.3153 C   0  0
   -4.0793    5.6942   -5.7764 C   0  0
   -3.5032    4.4394   -5.8203 C   0  0
   -3.9098    8.0128   -5.2707 O   0  0
   -3.0949    9.0813   -4.7846 C   0  0
   -1.7470    2.6347   -7.5867 H   0  0
   -0.4643    1.6440   -6.8194 H   0  0
   -0.2100    3.4093   -7.0605 H   0  0
    0.5561    0.6922   -2.5488 H   0  0
    1.0194    1.4662    0.0013 H   0  0
    0.0018   -0.0141    0.0024 H   0  0
   -1.9262   -0.1384    1.3783 H   0  0
   -2.6255    1.2235    0.4466 H   0  0
   -2.5367    1.3189    2.2430 H   0  0
    1.1294    1.6645    2.2605 H   0  0
    0.1288    0.2150    2.6131 H   0  0
    0.6435    3.8022    3.2917 H   0  0
   -0.3756    4.9811    5.2229 H   0  0
   -2.7717    1.5026    6.0724 H   0  0
   -1.7604    0.3368    4.1291 H   0  0
   -1.9559    5.9185    6.2139 H   0  0
   -0.6545    5.2781    7.2735 H   0  0
   -3.5405    5.6853    8.4000 H   0  0
   -0.6994    6.6121    9.1124 H   0  0
   -2.3081    6.8671   10.1008 H   0  0
   -0.4280    5.1942   -4.6012 H   0  0
   -1.4483    7.4554   -4.5380 H   0  0
   -5.1191    5.8344   -6.1067 H   0  0
   -4.0846    3.5803   -6.1861 H   0  0
   -2.2038    9.1085   -5.4290 H   0  0
   -2.7720    8.7891   -3.7745 H   0  0
   -3.6200   10.0479   -4.7783 H   0  0
  1  2  1  0
  2  8  1  0
  2  3  1  0
  2 26  1  0
  3  4  2  0
  3  5  1  0
  5  6  1  0
  5  9  1  0
  6  7  2  0
  6  8  1  0
  9 10  1  0
 10 11  2  0
 10 12  1  0
 12 13  1  0
 13 14  1  0
 13 15  1  0
 15 16  1  0
 16 21  2  0
 16 17  1  0
 17 18  2  0
 18 19  1  0
 19 20  2  0
 19 22  1  0
 20 21  1  0
 22 23  1  0
 23 24  1  0
 24 25  2  0
 26 31  2  0
 26 27  1  0
 27 28  2  0
 28 29  1  0
 29 30  2  0
 29 32  1  0
 30 31  1  0
 32 33  1  0
  1 34  1  0
  1 35  1  0
  1 36  1  0
  9 37  1  0
 12 38  1  0
 12 39  1  0
 14 40  1  0
 14 41  1  0
 14 42  1  0
 15 43  1  0
 15 44  1  0
 17 45  1  0
 18 46  1  0
 20 47  1  0
 21 48  1  0
 23 49  1  0
 23 50  1  0
 24 51  1  0
 25 52  1  0
 25 53  1  0
 27 54  1  0
 28 55  1  0
 30 56  1  0
 31 57  1  0
 33 58  1  0
 33 59  1  0
 33 60  1  0
M  CHG  1   8  -1
M  END
> <Name>
ZINC28954398

> <reference>
BDB50038594

> <quality>
0.719

> <status>
decoy

$$$$
ZINC32090104
  SciTegic06061311263D

 55 56  0  0  0  0            999 V2000
   -7.3206    6.4663   -1.5334 C   0  0
   -5.9475    6.0614   -1.2223 N   0  0
   -5.1339    6.8701   -0.3110 C   0  0
   -5.3149    4.6896   -1.9007 S   0  0
   -6.4168    3.8591   -2.2403 O   0  0
   -4.2705    4.2555   -1.0404 O   0  0
   -4.5539    5.1620   -3.4180 C   0  0
   -5.2856    5.1514   -4.5911 C   0  0
   -4.6900    5.5265   -5.7805 C   0  0
   -3.3597    5.9024   -5.7990 C   0  0
   -2.6267    5.9080   -4.6272 C   0  0
   -3.2240    5.5378   -3.4366 C   0  0
   -0.9311    6.3865   -4.6509 S   0  0
   -0.7288    7.1051   -5.8600 O   0  0
   -0.6493    6.9465   -3.3757 O   0  0
   -0.0328    5.0003   -4.7682 N   0  0
   -0.1428    4.1905   -5.9008 C   0  0
   -0.8239    2.9819   -5.8290 C   0  0
   -0.9349    2.1859   -6.9520 C   0  0
   -0.3601    2.5858   -8.1445 C   0  0
    0.3231    3.7858   -8.2182 C   0  0
    0.4334    4.5892   -7.1003 C   0  0
   -0.4788    1.7120   -9.3666 C   0  0
    0.6860    0.7571   -9.4164 C   0  0
    1.5294    0.7835   -8.5454 O   0  0
    0.7903   -0.1262  -10.4290 N   0  0
    1.9226   -1.0545  -10.4775 C   0  0
    1.8021   -1.9416  -11.7183 C   0  0
    1.9225   -1.1367  -12.8928 O   0  0
    1.8235   -1.8721  -14.1141 C   0  0
   -7.2305    7.4899   -1.9260 H   0  0
   -7.8207    6.5405   -0.5565 H   0  0
   -7.8458    5.7928   -2.2267 H   0  0
   -5.7226    6.9280    0.6164 H   0  0
   -5.1324    7.8774   -0.7531 H   0  0
   -4.1188    6.4810   -0.1432 H   0  0
   -6.3418    4.8444   -4.5777 H   0  0
   -5.2744    5.5260   -6.7124 H   0  0
   -2.8846    6.1970   -6.7463 H   0  0
   -2.6407    5.5423   -2.5040 H   0  0
    0.6071    4.7353   -4.0058 H   0  0
   -1.2743    2.6593   -4.8787 H   0  0
   -1.4812    1.2327   -6.8979 H   0  0
    0.7792    4.1008   -9.1683 H   0  0
    0.9769    5.5437   -7.1597 H   0  0
   -0.4758    2.3402  -10.2696 H   0  0
   -1.4182    1.1415   -9.3198 H   0  0
    0.0739   -0.1486  -11.1687 H   0  0
    1.9206   -1.6844   -9.5757 H   0  0
    2.8623   -0.4847  -10.5247 H   0  0
    2.6019   -2.6968  -11.7084 H   0  0
    0.8235   -2.4439  -11.7176 H   0  0
    0.8493   -2.3828  -14.1156 H   0  0
    2.6161   -2.6348  -14.1071 H   0  0
    1.9214   -1.2149  -14.9907 H   0  0
  1  2  1  0
  2  3  1  0
  2  4  1  0
  4  5  2  0
  4  6  2  0
  4  7  1  0
  7 12  2  0
  7  8  1  0
  8  9  2  0
  9 10  1  0
 10 11  2  0
 11 12  1  0
 11 13  1  0
 13 14  2  0
 13 15  2  0
 13 16  1  0
 16 17  1  0
 17 22  2  0
 17 18  1  0
 18 19  2  0
 19 20  1  0
 20 21  2  0
 20 23  1  0
 21 22  1  0
 23 24  1  0
 24 25  2  0
 24 26  1  0
 26 27  1  0
 27 28  1  0
 28 29  1  0
 29 30  1  0
  1 31  1  0
  1 32  1  0
  1 33  1  0
  3 34  1  0
  3 35  1  0
  3 36  1  0
  8 37  1  0
  9 38  1  0
 10 39  1  0
 12 40  1  0
 16 41  1  0
 18 42  1  0
 19 43  1  0
 21 44  1  0
 22 45  1  0
 23 46  1  0
 23 47  1  0
 26 48  1  0
 27 49  1  0
 27 50  1  0
 28 51  1  0
 28 52  1  0
 30 53  1  0
 30 54  1  0
 30 55  1  0
M  END
> <Name>
ZINC32090104

> <reference>
BDB50038594

> <quality>
0.719

> <status>
decoy

$$$$
ZINC27366793
  SciTegic06061311263D

 67 69  0  0  0  0            999 V2000
    3.4874    3.8835    1.4151 C   0  0
    2.6002    2.7591    1.7231 N   0  0
    1.5668    2.9020    2.7517 C   0  0
    0.2623    3.2873    2.1029 C   0  0
   -0.7015    2.3249    1.8655 C   0  0
   -1.8972    2.6722    1.2657 C   0  0
   -2.1371    3.9896    0.9046 C   0  0
   -1.1733    4.9609    1.1467 C   0  0
    0.0279    4.6075    1.7502 C   0  0
    0.9743    5.5545    1.9893 O   0  0
    0.8457    6.3102    3.1953 C   0  0
   -1.4047    6.2547    0.7935 O   0  0
   -1.0048    6.6500   -0.5202 C   0  0
   -3.3142    4.3304    0.3148 O   0  0
   -4.2584    3.2803    0.0965 C   0  0
    2.7347    1.5934    1.0603 C   0  0
    1.9419    0.6912    1.2501 O   0  0
    3.7479    1.4276    0.1872 N   0  0
    3.8941    0.1604   -0.5333 C   0  0
    5.1140    0.2348   -1.4537 C   0  0
    5.2667   -1.0886   -2.2061 C   0  0
    6.4380   -1.0171   -3.0898 N   0  0
    6.2308   -0.0319   -4.1603 C   0  0
    7.5003    0.0697   -5.0092 C   0  0
    7.8198   -1.2515   -5.5679 N   0  0
    8.0270   -2.2367   -4.4974 C   0  0
    6.7576   -2.3383   -3.6485 C   0  0
    8.9234   -1.1841   -6.4004 C   0  0
    9.9698   -1.9577   -6.1511 N   0  0
   11.0381   -1.9218   -6.9303 C   0  0
   11.0581   -1.0540   -8.0108 C   0  0
    9.9488   -0.2550   -8.2395 C   0  0
    8.9105   -0.3439   -7.4247 N   0  0
    3.9543    4.1456    2.3760 H   0  0
    2.8125    4.7108    1.1504 H   0  0
    4.2278    3.6745    0.6289 H   0  0
    1.4434    1.9467    3.2829 H   0  0
    1.8648    3.6833    3.4664 H   0  0
   -0.5161    1.2799    2.1548 H   0  0
   -2.6596    1.9027    1.0745 H   0  0
    0.8410    5.5805    4.0184 H   0  0
   -0.1463    6.7842    3.1589 H   0  0
    1.6461    7.0546    3.3184 H   0  0
   -1.5290    5.9801   -1.2177 H   0  0
    0.0719    6.4370   -0.5929 H   0  0
   -1.2239    7.7070   -0.7317 H   0  0
   -4.4578    2.8339    1.0819 H   0  0
   -3.7453    2.5259   -0.5180 H   0  0
   -5.1834    3.6327   -0.3833 H   0  0
    4.4195    2.1918    0.0265 H   0  0
    4.0295   -0.6585    0.1886 H   0  0
    2.9925   -0.0266   -1.1351 H   0  0
    4.9790    1.0532   -2.1762 H   0  0
    6.0168    0.4207   -0.8534 H   0  0
    4.3651   -1.2757   -2.8079 H   0  0
    5.4021   -1.9075   -1.4842 H   0  0
    6.0063    0.9501   -3.7184 H   0  0
    5.3904   -0.3503   -4.7946 H   0  0
    7.3373    0.7846   -5.8291 H   0  0
    8.3359    0.4139   -4.3820 H   0  0
    8.2511   -3.2184   -4.9403 H   0  0
    8.8675   -1.9193   -3.8627 H   0  0
    6.9212   -3.0536   -2.8290 H   0  0
    5.9235   -2.6838   -4.2770 H   0  0
   11.9002   -2.5728   -6.7232 H   0  0
   11.9352   -1.0005   -8.6725 H   0  0
    9.9321    0.4445   -9.0883 H   0  0
  1  2  1  0
  2  3  1  0
  2 16  1  0
  3  4  1  0
  4  9  2  0
  4  5  1  0
  5  6  2  0
  6  7  1  0
  7  8  2  0
  7 14  1  0
  8  9  1  0
  8 12  1  0
  9 10  1  0
 10 11  1  0
 12 13  1  0
 14 15  1  0
 16 17  2  0
 16 18  1  0
 18 19  1  0
 19 20  1  0
 20 21  1  0
 21 22  1  0
 22 27  1  0
 22 23  1  0
 23 24  1  0
 24 25  1  0
 25 26  1  0
 25 28  1  0
 26 27  1  0
 28 33  2  0
 28 29  1  0
 29 30  2  0
 30 31  1  0
 31 32  2  0
 32 33  1  0
  1 34  1  0
  1 35  1  0
  1 36  1  0
  3 37  1  0
  3 38  1  0
  5 39  1  0
  6 40  1  0
 11 41  1  0
 11 42  1  0
 11 43  1  0
 13 44  1  0
 13 45  1  0
 13 46  1  0
 15 47  1  0
 15 48  1  0
 15 49  1  0
 18 50  1  0
 19 51  1  0
 19 52  1  0
 20 53  1  0
 20 54  1  0
 21 55  1  0
 21 56  1  0
 23 57  1  0
 23 58  1  0
 24 59  1  0
 24 60  1  0
 26 61  1  0
 26 62  1  0
 27 63  1  0
 27 64  1  0
 30 65  1  0
 31 66  1  0
 32 67  1  0
M  END
> <Name>
ZINC27366793

> <reference>
BDB50038594

> <quality>
0.716

> <status>
decoy

$$$$
ZINC17018410
  SciTegic06061311263D

 64 66  0  0  1  0            999 V2000
   -1.4578   -3.3853   -0.5596 C   0  0
   -0.6015   -2.1767   -0.2820 C   0  0
    0.7396   -2.1779   -0.2333 C   0  0
    1.1568   -0.8043    0.0628 C   0  0
    2.3923   -0.1850    0.2345 C   0  0
    2.4404    1.1772    0.5147 C   0  0
    1.2526    1.9143    0.6221 C   0  0
    0.0420    1.3106    0.4544 C   0  0
   -0.0295   -0.0526    0.1731 C   0  0
   -1.0766   -0.9159   -0.0417 N   0  0
   -2.4928   -0.5419   -0.0170 C   0  0
   -2.9717   -0.2633   -1.4432 C   0  0  2  0  0  0
   -2.2092    0.9451   -2.0262 C   0  0
   -3.3039    1.6890   -2.8359 C   0  0
   -4.5557    1.4558   -1.9536 C   0  0
   -4.4007    0.0821   -1.4324 N   0  0
   -5.6283   -0.9049   -0.9212 S   0  0
   -5.0527   -1.6953    0.1098 O   0  0
   -6.7085   -0.0249   -0.6419 O   0  0
   -6.0219   -1.9412   -2.3571 C   0  0  1  0  0  0
   -7.1665   -2.8921   -2.0013 C   0  0
   -6.4435   -1.0513   -3.5281 C   0  0
    3.7434    1.8468    0.6992 C   0  0
    4.7737    1.2080    0.6063 O   0  0
    3.7906    3.1661    0.9706 N   0  0
    5.0834    3.8305    1.1537 C   0  0
    4.8569    5.3145    1.4488 C   0  0
    4.1800    5.4536    2.6996 O   0  0
    3.9183    6.8083    3.0714 C   0  0
    3.1945    6.8366    4.4191 C   0  0
    4.0598    6.3260    5.4353 O   0  0
   -2.0716   -3.0623   -1.4133 H   0  0
   -2.1336   -3.4137    0.3078 H   0  0
   -0.9185   -4.3283   -0.7327 H   0  0
    1.3998   -3.0443   -0.3864 H   0  0
    3.3216   -0.7673    0.1494 H   0  0
    1.2981    2.9907    0.8440 H   0  0
   -0.8818    1.9014    0.5414 H   0  0
   -2.6239    0.3619    0.5961 H   0  0
   -3.0822   -1.3652    0.4128 H   0  0
   -2.7940   -1.1643   -2.0487 H   0  0
   -1.4069    0.6034   -2.6967 H   0  0
   -1.8343    1.5867   -1.2151 H   0  0
   -3.0728    2.7627   -2.8966 H   0  0
   -3.4379    1.2203   -3.8220 H   0  0
   -5.4671    1.5271   -2.5653 H   0  0
   -4.5698    2.1761   -1.1223 H   0  0
   -5.1346   -2.5257   -2.6417 H   0  0
   -8.0545   -2.3086   -1.7169 H   0  0
   -6.8644   -3.5327   -1.1597 H   0  0
   -7.4057   -3.5209   -2.8716 H   0  0
   -5.6211   -0.3674   -3.7850 H   0  0
   -7.3311   -0.4665   -3.2447 H   0  0
   -6.6823   -1.6791   -4.3992 H   0  0
    2.9177    3.7072    1.0493 H   0  0
    5.6831    3.7270    0.2374 H   0  0
    5.6179    3.3671    1.9961 H   0  0
    5.8269    5.8309    1.4980 H   0  0
    4.2449    5.7591    0.6501 H   0  0
    3.2867    7.2841    2.3068 H   0  0
    4.8686    7.3560    3.1546 H   0  0
    2.9141    7.8719    4.6632 H   0  0
    2.2888    6.2148    4.3633 H   0  0
    4.8750    6.8853    5.4875 H   0  0
  1  2  1  0
  2 10  1  0
  2  3  2  0
  3  4  1  0
  4  9  1  0
  4  5  2  0
  5  6  1  0
  6  7  2  0
  6 23  1  0
  7  8  1  0
  8  9  2  0
  9 10  1  0
 10 11  1  0
 11 12  1  0
 12 16  1  0
 12 13  1  0
 13 14  1  0
 14 15  1  0
 15 16  1  0
 16 17  1  0
 17 18  2  0
 17 19  2  0
 17 20  1  0
 20 21  1  0
 20 22  1  0
 23 24  2  0
 23 25  1  0
 25 26  1  0
 26 27  1  0
 27 28  1  0
 28 29  1  0
 29 30  1  0
 30 31  1  0
  1 32  1  0
  1 33  1  0
  1 34  1  0
  3 35  1  0
  5 36  1  0
  7 37  1  0
  8 38  1  0
 11 39  1  0
 11 40  1  0
 12 41  1  0
 13 42  1  0
 13 43  1  0
 14 44  1  0
 14 45  1  0
 15 46  1  0
 15 47  1  0
 20 48  1  0
 21 49  1  0
 21 50  1  0
 21 51  1  0
 22 52  1  0
 22 53  1  0
 22 54  1  0
 25 55  1  0
 26 56  1  0
 26 57  1  0
 27 58  1  0
 27 59  1  0
 29 60  1  0
 29 61  1  0
 30 62  1  0
 30 63  1  0
 31 64  1  0
M  END
> <Name>
ZINC17018410

> <reference>
BDB50038594

> <quality>
0.715

> <status>
decoy

$$$$
ZINC30901557
  SciTegic06061311263D

 66 69  0  0  0  0            999 V2000
   -3.3082   -1.0329   -0.4213 C   0  0
   -2.0686   -0.3393   -0.5772 O   0  0
   -0.9363   -1.0924   -0.5839 C   0  0
   -1.0173   -2.4692   -0.4493 C   0  0
    0.1351   -3.2328   -0.4506 C   0  0
    1.3696   -2.6265   -0.5917 C   0  0
    1.4571   -1.2540   -0.7321 C   0  0
    0.3059   -0.4828   -0.7316 C   0  0
    0.3901    0.8675   -0.8697 O   0  0
    1.6984    1.4248   -1.0110 C   0  0
    1.5943    2.9217   -1.1510 C   0  0
    0.5069    3.4584   -1.1317 O   0  0
    2.7097    3.6639   -1.2976 N   0  0
    4.0403    3.0359   -1.3177 C   0  0
    4.7944    3.5505   -2.5544 C   0  0
    4.7674    4.9799   -2.5589 O   0  0
    3.4562    5.5402   -2.6616 C   0  0
    2.6332    5.1269   -1.4361 C   0  0
    0.0455   -4.7294   -0.2984 C   0  0
    0.1076   -5.0812    1.1265 N   0  3
    0.0229   -6.5358    1.3138 C   0  0
    0.0897   -6.8576    2.7845 C   0  0
    1.2560   -7.3501    3.3421 C   0  0
    1.2728   -7.6325    4.7014 C   0  0
    0.1341   -7.4154    5.4513 C   0  0
   -0.9644   -6.9442    4.8927 N   0  0
   -1.0187   -6.6582    3.6008 C   0  0
   -2.1955   -6.1589    3.0547 N   0  0
   -2.5548   -4.8708    3.6655 C   0  0
   -3.8203   -4.3296    2.9950 C   0  0
   -4.8675   -5.2962    3.1143 O   0  0
   -4.5516   -6.5625    2.5294 C   0  0
   -3.2935   -7.1264    3.1952 C   0  0
   -3.2335   -1.5911    0.5236 H   0  0
   -3.3589   -1.7638   -1.2418 H   0  0
   -4.1769   -0.3581   -0.4257 H   0  0
   -1.9985   -2.9545   -0.3414 H   0  0
    2.2842   -3.2376   -0.5922 H   0  0
    2.4406   -0.7742   -0.8442 H   0  0
    2.1817    1.0063   -1.9061 H   0  0
    2.2989    1.1811   -0.1222 H   0  0
    3.9341    1.9428   -1.3789 H   0  0
    4.5933    3.3108   -0.4074 H   0  0
    5.8375    3.2032   -2.5196 H   0  0
    4.3092    3.1715   -3.4660 H   0  0
    3.5274    6.6371   -2.7025 H   0  0
    2.9670    5.1683   -3.5739 H   0  0
    1.5853    5.4307   -1.5763 H   0  0
    3.0460    5.6065   -0.5363 H   0  0
   -0.9053   -5.0849   -0.7222 H   0  0
    0.8839   -5.2039   -0.8294 H   0  0
    0.9949   -4.7394    1.5224 H   0  0
   -0.6735   -4.6295    1.6232 H   0  0
    0.8612   -7.0230    0.7942 H   0  0
   -0.9280   -6.9040    0.9013 H   0  0
    2.1500   -7.5143    2.7225 H   0  0
    2.1841   -8.0252    5.1760 H   0  0
    0.1428   -7.6382    6.5285 H   0  0
   -1.7315   -4.1547    3.5263 H   0  0
   -2.7415   -5.0131    4.7402 H   0  0
   -4.1260   -3.3949    3.4879 H   0  0
   -3.6194   -4.1363    1.9309 H   0  0
   -5.3903   -7.2575    2.6826 H   0  0
   -4.3704   -6.4357    1.4519 H   0  0
   -3.0140   -8.0726    2.7087 H   0  0
   -3.4925   -7.3054    4.2621 H   0  0
  1  2  1  0
  2  3  1  0
  3  8  2  0
  3  4  1  0
  4  5  2  0
  5  6  1  0
  5 19  1  0
  6  7  2  0
  7  8  1  0
  8  9  1  0
  9 10  1  0
 10 11  1  0
 11 12  2  0
 11 13  1  0
 13 18  1  0
 13 14  1  0
 14 15  1  0
 15 16  1  0
 16 17  1  0
 17 18  1  0
 19 20  1  0
 20 21  1  0
 21 22  1  0
 22 27  2  0
 22 23  1  0
 23 24  2  0
 24 25  1  0
 25 26  2  0
 26 27  1  0
 27 28  1  0
 28 33  1  0
 28 29  1  0
 29 30  1  0
 30 31  1  0
 31 32  1  0
 32 33  1  0
  1 34  1  0
  1 35  1  0
  1 36  1  0
  4 37  1  0
  6 38  1  0
  7 39  1  0
 10 40  1  0
 10 41  1  0
 14 42  1  0
 14 43  1  0
 15 44  1  0
 15 45  1  0
 17 46  1  0
 17 47  1  0
 18 48  1  0
 18 49  1  0
 19 50  1  0
 19 51  1  0
 20 52  1  0
 20 53  1  0
 21 54  1  0
 21 55  1  0
 23 56  1  0
 24 57  1  0
 25 58  1  0
 29 59  1  0
 29 60  1  0
 30 61  1  0
 30 62  1  0
 32 63  1  0
 32 64  1  0
 33 65  1  0
 33 66  1  0
M  CHG  1  20   1
M  END
> <Name>
ZINC30901557

> <reference>
BDB50038594

> <quality>
0.712

> <status>
decoy

$$$$
ZINC25645302
  SciTegic06061311263D

 59 61  0  0  1  0            999 V2000
    1.7076    2.1926   -1.7023 C   0  0
    1.2240    2.0752   -0.2555 C   0  0  1  0  0  0
    0.9983    3.4740    0.3219 C   0  0
    0.1010    4.1985   -0.5218 O   0  0
   -0.1784    5.5251   -0.0700 C   0  0
   -0.0331    1.3237   -0.2203 N   0  0
   -0.0121   -0.0234   -0.1865 C   0  0
    1.0497   -0.6148   -0.1852 O   0  0
   -1.1686   -0.7148   -0.1541 N   0  0
   -1.1476   -2.0620   -0.1203 C   0  0
   -0.0885   -2.6519   -0.1190 O   0  0
   -2.4407   -2.8350   -0.0841 C   0  0  1  0  0  0
   -2.9614   -3.0251   -1.5102 C   0  0
   -2.1545   -4.4569    0.6763 S   0  0
   -3.7630   -5.1688    0.7801 C   0  0
   -4.8809   -4.6076    0.3881 N   0  0
   -5.9274   -5.5035    0.6434 N   0  0
   -5.4159   -6.5789    1.1898 C   0  0
   -4.0651   -6.4009    1.2888 N   0  0
   -3.1083   -7.3616    1.8436 C   0  0
   -2.8879   -7.0644    3.3045 C   0  0
   -3.5985   -7.5737    4.3268 C   0  0
   -3.0538   -7.0324    5.5140 C   0  0
   -2.0484   -6.2184    5.1456 C   0  0
   -1.9524   -6.2417    3.8062 O   0  0
   -6.1231   -7.7027    1.5973 N   0  0
   -6.6897   -8.4158    0.4432 C   0  0
   -7.4081   -9.6765    0.9316 C   0  0
   -8.4083   -9.3098    1.8858 O   0  0
   -7.8912   -8.6140    3.0233 C   0  0
   -7.1777   -7.3425    2.5561 C   0  0
    2.6516    2.7565   -1.7298 H   0  0
    0.9497    2.7180   -2.3019 H   0  0
    1.8701    1.1872   -2.1181 H   0  0
    1.9824    1.5494    0.3431 H   0  0
    0.5655    3.3894    1.3296 H   0  0
    1.9585    4.0077    0.3788 H   0  0
    0.7797    6.0615   -0.0040 H   0  0
   -0.6044    5.4481    0.9412 H   0  0
   -0.8716    6.0452   -0.7474 H   0  0
   -0.9329    1.8249   -0.2214 H   0  0
   -2.0684   -0.2136   -0.1552 H   0  0
   -3.1838   -2.2791    0.5065 H   0  0
   -2.2191   -3.5812   -2.1016 H   0  0
   -3.1355   -2.0421   -1.9722 H   0  0
   -3.9053   -3.5893   -1.4845 H   0  0
   -3.5064   -8.3811    1.7334 H   0  0
   -2.1523   -7.2811    1.3055 H   0  0
   -4.4416   -8.2764    4.2533 H   0  0
   -3.3881   -7.2376    6.5417 H   0  0
   -1.4126   -5.6329    5.8260 H   0  0
   -5.8819   -8.6988   -0.2478 H   0  0
   -7.4069   -7.7631   -0.0760 H   0  0
   -7.8833  -10.1823    0.0782 H   0  0
   -6.6820  -10.3545    1.4039 H   0  0
   -8.7184   -8.3440    3.6962 H   0  0
   -7.1779   -9.2593    3.5570 H   0  0
   -6.7287   -6.8347    3.4224 H   0  0
   -7.9030   -6.6724    2.0714 H   0  0
  1  2  1  0
  2  3  1  0
  2  6  1  0
  3  4  1  0
  4  5  1  0
  6  7  1  0
  7  8  2  0
  7  9  1  0
  9 10  1  0
 10 11  2  0
 10 12  1  0
 12 13  1  0
 12 14  1  0
 14 15  1  0
 15 19  1  0
 15 16  2  0
 16 17  1  0
 17 18  2  0
 18 19  1  0
 18 26  1  0
 19 20  1  0
 20 21  1  0
 21 25  1  0
 21 22  2  0
 22 23  1  0
 23 24  2  0
 24 25  1  0
 26 31  1  0
 26 27  1  0
 27 28  1  0
 28 29  1  0
 29 30  1  0
 30 31  1  0
  1 32  1  0
  1 33  1  0
  1 34  1  0
  2 35  1  0
  3 36  1  0
  3 37  1  0
  5 38  1  0
  5 39  1  0
  5 40  1  0
  6 41  1  0
  9 42  1  0
 12 43  1  0
 13 44  1  0
 13 45  1  0
 13 46  1  0
 20 47  1  0
 20 48  1  0
 22 49  1  0
 23 50  1  0
 24 51  1  0
 27 52  1  0
 27 53  1  0
 28 54  1  0
 28 55  1  0
 30 56  1  0
 30 57  1  0
 31 58  1  0
 31 59  1  0
M  END
> <Name>
ZINC25645302

> <reference>
BDB50038594

> <quality>
0.710

> <status>
decoy

$$$$
ZINC22098635
  SciTegic06061311263D

 52 53  0  0  0  0            999 V2000
   -0.0056   -3.5279   -1.7853 C   0  0
    1.2779   -2.8207   -1.3456 C   0  0
    1.3536   -1.5044   -1.9843 N   0  0
    1.9886   -1.1875   -3.1629 C   0  0
    1.8130    0.0981   -3.3617 N   0  0
    1.1172    0.5990   -2.4044 N   0  0
    0.8058   -0.3366   -1.5353 C   0  0
   -0.1362   -0.1225   -0.0617 S   0  0
   -0.4825    1.6510   -0.1649 C   0  0
   -1.3020    2.0730    1.0273 C   0  0
   -1.6194    1.2583    1.8612 O   0  0
   -1.6794    3.3540    1.1629 O   0  0
   -2.4671    3.6886    2.3358 C   0  0
   -2.7952    5.1593    2.3178 C   0  0
   -2.4038    5.8566    1.4065 O   0  0
   -3.5237    5.6995    3.3148 N   0  0
   -3.8171    7.0148    3.2987 C   0  0
   -3.4247    7.7139    2.3851 O   0  0
   -4.5456    7.5550    4.2957 N   0  0
   -4.8645    8.9848    4.2782 C   0  0
   -5.6945    9.3373    5.5142 C   0  0
   -4.9060    9.1402    6.6896 O   0  0
   -5.5912    9.4428    7.9066 C   0  0
    2.7332   -2.1182   -4.0376 C   0  0
    3.6469   -1.6239   -4.9699 C   0  0
    4.3415   -2.4974   -5.7805 C   0  0
    4.1272   -3.8616   -5.6771 C   0  0
    3.2185   -4.3575   -4.7574 C   0  0
    2.5211   -3.4942   -3.9383 C   0  0
    5.0007   -4.9543   -6.7050 Cl  0  0
   -0.0015   -3.6512   -2.8784 H   0  0
   -0.8772   -2.9263   -1.4881 H   0  0
   -0.0631   -4.5163   -1.3061 H   0  0
    2.1496   -3.4223   -1.6428 H   0  0
    1.2728   -2.6975   -0.2525 H   0  0
   -1.0425    1.8632   -1.0876 H   0  0
    0.4650    2.2098   -0.1742 H   0  0
   -1.8929    3.4529    3.2440 H   0  0
   -3.3997    3.1053    2.3299 H   0  0
   -3.8562    5.1071    4.0890 H   0  0
   -4.8781    6.9626    5.0699 H   0  0
   -5.4398    9.2223    3.3712 H   0  0
   -3.9323    9.5687    4.2845 H   0  0
   -6.0093   10.3897    5.4567 H   0  0
   -6.5833    8.6906    5.5571 H   0  0
   -6.4855    8.8039    7.9513 H   0  0
   -5.9158   10.4924    7.8522 H   0  0
   -4.9487    9.2775    8.7840 H   0  0
    3.8127   -0.5400   -5.0580 H   0  0
    5.0672   -2.1096   -6.5106 H   0  0
    3.0525   -5.4421   -4.6799 H   0  0
    1.7993   -3.8893   -3.2083 H   0  0
  1  2  1  0
  2  3  1  0
  3  7  1  0
  3  4  1  0
  4  5  2  0
  4 24  1  0
  5  6  1  0
  6  7  2  0
  7  8  1  0
  8  9  1  0
  9 10  1  0
 10 11  2  0
 10 12  1  0
 12 13  1  0
 13 14  1  0
 14 15  2  0
 14 16  1  0
 16 17  1  0
 17 18  2  0
 17 19  1  0
 19 20  1  0
 20 21  1  0
 21 22  1  0
 22 23  1  0
 24 29  2  0
 24 25  1  0
 25 26  2  0
 26 27  1  0
 27 28  2  0
 27 30  1  0
 28 29  1  0
  1 31  1  0
  1 32  1  0
  1 33  1  0
  2 34  1  0
  2 35  1  0
  9 36  1  0
  9 37  1  0
 13 38  1  0
 13 39  1  0
 16 40  1  0
 19 41  1  0
 20 42  1  0
 20 43  1  0
 21 44  1  0
 21 45  1  0
 23 46  1  0
 23 47  1  0
 23 48  1  0
 25 49  1  0
 26 50  1  0
 28 51  1  0
 29 52  1  0
M  END
> <Name>
ZINC22098635

> <reference>
BDB50038594

> <quality>
0.704

> <status>
decoy

$$$$
ZINC11395664
  SciTegic06061311263D

 59 60  0  0  0  0            999 V2000
   -0.0127    1.0858    0.0080 C   0  0
   -0.7288    1.5792    1.2668 C   0  0
   -0.0203    1.0939    2.4537 N   0  0
   -0.2581   -0.0950    3.1238 C   0  0
   -1.1498   -1.1407    2.9393 C   0  0
   -1.1366   -2.2153    3.8044 C   0  0
   -0.2366   -2.2574    4.8589 C   0  0
    0.6613   -1.2317    5.0525 C   0  0
    0.6576   -0.1339    4.1882 C   0  0
    1.3904    1.0088    4.1278 N   0  0
    0.9942    1.7324    3.1095 C   0  0
    1.6691    3.2950    2.6541 S   0  0
    2.9273    3.4813    3.9419 C   0  0
    3.6549    4.7868    3.7482 C   0  0
    3.3525    5.5191    2.8299 O   0  0
    4.6416    5.1405    4.5954 N   0  0
    5.3489    6.4095    4.4071 C   0  0
    6.4124    6.5670    5.4956 C   0  0
    7.1197    7.8361    5.3073 N   0  0
    8.1065    8.1898    6.1545 C   0  0
    8.4088    7.4575    7.0728 O   0  0
    8.8340    9.4952    5.9608 C   0  0
   -0.2351   -3.6389    5.9526 S   0  0
    0.3292   -3.1875    7.1762 O   0  0
   -1.5312   -4.2168    5.8788 O   0  0
    0.8172   -4.7555    5.3296 N   0  0
    2.2303   -4.7251    5.7148 C   0  0
    2.4631   -5.6934    6.8763 C   0  0
    0.3350   -5.7737    4.3931 C   0  0
    0.5646   -5.2961    2.9578 C   0  0
    0.0025   -0.0141    0.0009 H   0  0
    1.0194    1.4662   -0.0008 H   0  0
   -0.5442    1.4499   -0.8836 H   0  0
   -1.7609    1.1988    1.2757 H   0  0
   -0.7433    2.6791    1.2733 H   0  0
   -1.8662   -1.1135    2.1050 H   0  0
   -1.8445   -3.0442    3.6569 H   0  0
    1.3791   -1.2764    5.8848 H   0  0
    3.6445    2.6497    3.8783 H   0  0
    2.4444    3.4744    4.9302 H   0  0
    4.8984    4.5186    5.3753 H   0  0
    5.8324    6.4169    3.4191 H   0  0
    4.6333    7.2425    4.4714 H   0  0
    5.9295    6.5601    6.4839 H   0  0
    7.1296    5.7354    5.4321 H   0  0
    6.8629    8.4581    4.5275 H   0  0
    8.0495   10.2661    5.9747 H   0  0
    9.2324    9.4528    4.9364 H   0  0
    9.6184    9.6803    6.7094 H   0  0
    2.8507   -5.0256    4.8576 H   0  0
    2.5046   -3.7066    6.0269 H   0  0
    2.1903   -6.7127    6.5656 H   0  0
    1.8434   -5.3941    7.7344 H   0  0
    3.5240   -5.6711    7.1661 H   0  0
    0.8829   -6.7131    4.5584 H   0  0
   -0.7398   -5.9428    4.5550 H   0  0
    1.6392   -5.1276    2.7938 H   0  0
    0.0171   -4.3567    2.7908 H   0  0
    0.2027   -6.0602    2.2541 H   0  0
  1  2  1  0
  2  3  1  0
  3 11  1  0
  3  4  1  0
  4  9  1  0
  4  5  2  0
  5  6  1  0
  6  7  2  0
  7  8  1  0
  7 23  1  0
  8  9  2  0
  9 10  1  0
 10 11  2  0
 11 12  1  0
 12 13  1  0
 13 14  1  0
 14 15  2  0
 14 16  1  0
 16 17  1  0
 17 18  1  0
 18 19  1  0
 19 20  1  0
 20 21  2  0
 20 22  1  0
 23 24  2  0
 23 25  2  0
 23 26  1  0
 26 27  1  0
 26 29  1  0
 27 28  1  0
 29 30  1  0
  1 31  1  0
  1 32  1  0
  1 33  1  0
  2 34  1  0
  2 35  1  0
  5 36  1  0
  6 37  1  0
  8 38  1  0
 13 39  1  0
 13 40  1  0
 16 41  1  0
 17 42  1  0
 17 43  1  0
 18 44  1  0
 18 45  1  0
 19 46  1  0
 22 47  1  0
 22 48  1  0
 22 49  1  0
 27 50  1  0
 27 51  1  0
 28 52  1  0
 28 53  1  0
 28 54  1  0
 29 55  1  0
 29 56  1  0
 30 57  1  0
 30 58  1  0
 30 59  1  0
M  END
> <Name>
ZINC11395664

> <reference>
BDB50038594

> <quality>
0.704

> <status>
decoy

$$$$
ZINC29966954
  SciTegic06061311263D

 58 59  0  0  0  0            999 V2000
    4.3864   -2.4040   -2.9452 C   0  0
    2.8994   -2.2821   -2.6062 C   0  0
    2.6059   -3.0699   -1.4064 N   0  0
    2.3181   -4.5017   -1.5225 C   0  0
    0.8340   -4.6997   -1.8372 C   0  0
    2.5994   -2.3420    0.0810 S   0  0
    3.4193   -1.1866   -0.0287 O   0  0
    2.8487   -3.3652    1.0350 O   0  0
    0.9590   -1.7694    0.3737 C   0  0
   -0.0770   -2.4131    0.9652 C   0  0
   -1.2890   -1.7602    1.0889 C   0  0
   -1.4059   -0.4956    0.6151 C   0  0
    0.2301   -0.1908   -0.0313 S   0  0
   -2.6070    0.4145    0.6254 C   0  0
   -2.6096    1.2058    1.8583 N   0  0
   -3.5967    2.0945    2.0865 C   0  0
   -4.4829    2.2392    1.2713 O   0  0
   -3.5994    2.9085    3.3548 C   0  0
   -4.7670    3.7933    3.3648 N   0  0
   -4.9851    4.6500    4.4466 C   0  0
   -4.0973    4.6588    5.5164 C   0  0
   -4.3061    5.5079    6.5866 C   0  0
   -5.4031    6.3453    6.6056 C   0  0
   -6.3034    6.3404    5.5390 C   0  0
   -6.0901    5.4873    4.4562 C   0  0
   -7.4797    7.2361    5.5571 C   0  0
   -7.9186    7.6841    4.5158 O   0  0
   -8.0653    7.5559    6.7281 N   0  0
   -9.2858    8.3661    6.7396 C   0  0
   -7.4813    7.0932    7.9895 C   0  0
    4.6361   -3.4592   -3.1301 H   0  0
    4.9873   -2.0276   -2.1042 H   0  0
    4.6075   -1.8127   -3.8460 H   0  0
    2.6507   -1.2267   -2.4211 H   0  0
    2.2984   -2.6584   -3.4471 H   0  0
    2.9248   -4.9333   -2.3322 H   0  0
    2.5613   -5.0038   -0.5745 H   0  0
    0.5893   -4.1992   -2.7857 H   0  0
    0.2259   -4.2686   -1.0283 H   0  0
    0.6172   -5.7746   -1.9245 H   0  0
    0.0450   -3.4396    1.3411 H   0  0
   -2.1459   -2.2594    1.5648 H   0  0
   -2.5636    1.0890   -0.2425 H   0  0
   -3.5257   -0.1884    0.5756 H   0  0
   -1.8570    1.0829    2.5507 H   0  0
   -3.6433    2.2346    4.2231 H   0  0
   -2.6818    3.5130    3.4058 H   0  0
   -5.4271    3.7838    2.5742 H   0  0
   -3.2258    3.9877    5.5110 H   0  0
   -3.5955    5.5164    7.4262 H   0  0
   -5.5679    7.0166    7.4613 H   0  0
   -6.7962    5.4789    3.6128 H   0  0
  -10.0020    7.8144    6.1129 H   0  0
   -9.0230    9.2880    6.2001 H   0  0
   -9.6779    8.5670    7.7475 H   0  0
   -6.4486    7.4720    7.9833 H   0  0
   -7.4277    5.9985    7.8961 H   0  0
   -8.0396    7.4114    8.8823 H   0  0
  1  2  1  0
  2  3  1  0
  3  4  1  0
  3  6  1  0
  4  5  1  0
  6  7  2  0
  6  8  2  0
  6  9  1  0
  9 13  1  0
  9 10  2  0
 10 11  1  0
 11 12  2  0
 12 13  1  0
 12 14  1  0
 14 15  1  0
 15 16  1  0
 16 17  2  0
 16 18  1  0
 18 19  1  0
 19 20  1  0
 20 25  2  0
 20 21  1  0
 21 22  2  0
 22 23  1  0
 23 24  2  0
 24 25  1  0
 24 26  1  0
 26 27  2  0
 26 28  1  0
 28 29  1  0
 28 30  1  0
  1 31  1  0
  1 32  1  0
  1 33  1  0
  2 34  1  0
  2 35  1  0
  4 36  1  0
  4 37  1  0
  5 38  1  0
  5 39  1  0
  5 40  1  0
 10 41  1  0
 11 42  1  0
 14 43  1  0
 14 44  1  0
 15 45  1  0
 18 46  1  0
 18 47  1  0
 19 48  1  0
 21 49  1  0
 22 50  1  0
 23 51  1  0
 25 52  1  0
 29 53  1  0
 29 54  1  0
 29 55  1  0
 30 56  1  0
 30 57  1  0
 30 58  1  0
M  END
> <Name>
ZINC29966954

> <reference>
BDB50038594

> <quality>
0.703

> <status>
decoy

$$$$
ZINC05010624
  SciTegic06061311263D

 46 48  0  0  1  0            999 V2000
    4.5016    5.2656    8.5519 C   0  0
    3.5771    4.1055    8.1768 C   0  0
    3.1350    4.2563    6.7199 C   0  0
    2.2105    3.0963    6.3449 C   0  0
    1.7976    3.2371    4.9841 O   0  0
    0.9264    2.1990    4.5307 C   0  0
    0.5507    2.4507    3.0691 C   0  0
   -0.3821    1.3393    2.5836 C   0  0
   -0.7418    1.5802    1.1841 N   0  0
   -0.0127    1.0858    0.0080 C   0  5
   -0.7869    1.6081   -1.1836 C   0  0
   -0.5305    1.4341   -2.3591 O   0  0
   -1.8643    2.3358   -0.6483 C   0  0
   -1.8100    2.2998    0.7429 C   0  0
   -2.7134    2.9100    1.5616 N   0  0
   -2.8940    3.0304   -1.4386 C   0  0
   -3.9322    3.7240   -1.0166 N   0  0
   -4.7995    4.3149   -1.8641 C   0  0
   -5.9428    5.0852   -1.5457 C   0  0
   -6.7285    5.6141   -2.5359 C   0  0
   -6.4354    5.4161   -3.8776 C   0  0
   -5.3254    4.6682   -4.2255 C   0  0
   -4.5322    4.1342   -3.2409 C   0  0
   -3.0592    3.1411   -3.2148 S   0  0
    3.9650    6.2180    8.4290 H   0  0
    5.3863    5.2569    7.8983 H   0  0
    4.8199    5.1578    9.5993 H   0  0
    4.1146    3.1536    8.2997 H   0  0
    2.6924    4.1141    8.8304 H   0  0
    2.5971    5.2078    6.5964 H   0  0
    4.0184    4.2467    6.0646 H   0  0
    2.7479    2.1444    6.4679 H   0  0
    1.3258    3.1050    6.9985 H   0  0
    1.4370    1.2284    4.6155 H   0  0
    0.0148    2.1888    5.1463 H   0  0
    0.0396    3.4210    2.9836 H   0  0
    1.4611    2.4601    2.4517 H   0  0
    0.1285    0.3687    2.6685 H   0  0
   -1.2937    1.3292    3.1992 H   0  0
   -0.0081   -0.0142    0.0001 H   0  0
   -2.5658    2.8119    2.5762 H   0  0
   -3.5110    3.4473    1.1927 H   0  0
   -6.2038    5.2614   -0.4917 H   0  0
   -7.6118    6.2092   -2.2609 H   0  0
   -7.0795    5.8497   -4.6568 H   0  0
   -5.0797    4.5023   -5.2848 H   0  0
  1  2  1  0
  2  3  1  0
  3  4  1  0
  4  5  1  0
  5  6  1  0
  6  7  1  0
  7  8  1  0
  8  9  1  0
  9 14  1  0
  9 10  1  0
 10 11  1  0
 11 12  2  0
 11 13  1  0
 13 14  2  0
 13 16  1  0
 14 15  1  0
 16 24  1  0
 16 17  2  0
 17 18  1  0
 18 23  1  0
 18 19  2  0
 19 20  1  0
 20 21  2  0
 21 22  1  0
 22 23  2  0
 23 24  1  0
  1 25  1  0
  1 26  1  0
  1 27  1  0
  2 28  1  0
  2 29  1  0
  3 30  1  0
  3 31  1  0
  4 32  1  0
  4 33  1  0
  6 34  1  0
  6 35  1  0
  7 36  1  0
  7 37  1  0
  8 38  1  0
  8 39  1  0
 10 40  1  0
 15 41  1  0
 15 42  1  0
 19 43  1  0
 20 44  1  0
 21 45  1  0
 22 46  1  0
M  CHG  1  10  -1
M  END
> <Name>
ZINC05010624

> <reference>
BDB50266170

> <quality>
0.886

> <status>
decoy

$$$$
ZINC26261947
  SciTegic06061311263D

 51 52  0  0  1  0            999 V2000
   -0.0366    1.0992   -2.4903 C   0  0
   -0.7527    1.5927   -1.2315 C   0  0
   -0.0127    1.0858    0.0080 C   0  0
   -0.7288    1.5792    1.2668 C   0  0
   -0.0203    1.0939    2.4537 N   0  0
    0.9798    1.7335    3.0921 C   0  0
    1.4540    2.8135    2.7870 O   0  0
    1.3603    0.9607    4.1304 N   0  0
    0.5571   -0.1880    4.1146 N   0  0
   -0.2661   -0.0904    3.1108 C   0  0
   -1.4886   -1.2784    2.6651 S   0  0
   -1.2106   -2.5153    3.9570 C   0  0  2  0  0  0
    0.1821   -3.1257    3.7873 C   0  0
   -2.2512   -3.5997    3.8465 C   0  0
   -2.7921   -3.8150    2.7825 O   0  0
   -2.5808   -4.3303    4.9300 N   0  0
   -3.5925   -5.3845    4.8226 C   0  0
   -3.7769   -6.0551    6.1853 C   0  0  2  0  0  0
   -2.4846   -6.7730    6.5796 C   0  0
   -2.6690   -7.4436    7.9424 C   0  0
   -3.8115   -8.4580    7.8611 C   0  0
   -5.1039   -7.7402    7.4669 C   0  0
   -4.9194   -7.0696    6.1041 C   0  0
   -0.0215   -0.0007   -2.4975 H   0  0
    0.9955    1.4796   -2.4992 H   0  0
   -0.5681    1.4633   -3.3819 H   0  0
   -0.7671    2.6926   -1.2250 H   0  0
   -1.7848    1.2124   -1.2225 H   0  0
    0.0018   -0.0141    0.0023 H   0  0
    1.0194    1.4662    0.0013 H   0  0
   -0.7433    2.6791    1.2733 H   0  0
   -1.7609    1.1988    1.2757 H   0  0
    0.6521    3.3936    2.7644 H   0  0
   -1.2833   -2.0366    4.9447 H   0  0
    0.9426   -2.3351    3.8682 H   0  0
    0.2558   -3.6051    2.8000 H   0  0
    0.3518   -3.8775    4.5721 H   0  0
   -2.1214   -4.1475    5.8336 H   0  0
   -3.2657   -6.1343    4.0870 H   0  0
   -4.5474   -4.9449    4.4987 H   0  0
   -4.0172   -5.2918    6.9400 H   0  0
   -1.6625   -6.0445    6.6385 H   0  0
   -2.2444   -7.5367    5.8253 H   0  0
   -1.7401   -7.9603    8.2257 H   0  0
   -2.9097   -6.6812    8.6979 H   0  0
   -3.9451   -8.9407    8.8405 H   0  0
   -3.5715   -9.2210    7.1060 H   0  0
   -5.9252   -8.4695    7.4079 H   0  0
   -5.3451   -6.9764    8.2209 H   0  0
   -5.8487   -6.5536    5.8212 H   0  0
   -4.6799   -7.8336    5.3498 H   0  0
  1  2  1  0
  2  3  1  0
  3  4  1  0
  4  5  1  0
  5 10  1  0
  5  6  1  0
  6  7  1  0
  6  8  2  0
  8  9  1  0
  9 10  2  0
 10 11  1  0
 11 12  1  0
 12 13  1  0
 12 14  1  0
 14 15  2  0
 14 16  1  0
 16 17  1  0
 17 18  1  0
 18 23  1  0
 18 19  1  0
 19 20  1  0
 20 21  1  0
 21 22  1  0
 22 23  1  0
  1 24  1  0
  1 25  1  0
  1 26  1  0
  2 27  1  0
  2 28  1  0
  3 29  1  0
  3 30  1  0
  4 31  1  0
  4 32  1  0
  7 33  1  0
 12 34  1  0
 13 35  1  0
 13 36  1  0
 13 37  1  0
 16 38  1  0
 17 39  1  0
 17 40  1  0
 18 41  1  0
 19 42  1  0
 19 43  1  0
 20 44  1  0
 20 45  1  0
 21 46  1  0
 21 47  1  0
 22 48  1  0
 22 49  1  0
 23 50  1  0
 23 51  1  0
M  END
> <Name>
ZINC26261947

> <reference>
BDB50266170

> <quality>
0.840

> <status>
decoy

$$$$
ZINC04602570
  SciTegic06061311263D

 43 44  0  0  0  0            999 V2000
   -4.4164    5.7306    2.5852 C   0  0
   -4.3216    5.1690    1.1651 C   0  0
   -4.0581    3.7424    1.2254 O   0  0
   -3.9451    3.0904    0.0500 C   0  0
   -4.0637    3.6985   -0.9967 O   0  0
   -3.6796    1.6504    0.0342 C   0  0
   -4.7647    0.6835    0.0287 C   0  0
   -4.3814   -0.6113    0.0205 C   0  0
   -2.6118   -0.5600    0.0120 S   0  0
   -2.3814    1.1573    0.0196 C   0  0
   -1.1906    1.8665    0.0178 N   0  0
   -0.0144    1.2086    0.0087 C   0  0
    0.0021   -0.0041    0.0020 O   0  0
    1.2803    1.9798    0.0005 C   0  0
    2.6749    0.8199   -0.0191 S   0  0
    4.1378    1.8925   -0.0273 C   0  0
    5.4019    1.0308   -0.0440 C   0  0
    6.5543    1.8758   -0.0504 O   0  0
   -5.2706   -1.8165    0.0194 C   0  0
   -6.6885   -1.3720    0.4069 C   0  0
   -7.0628   -0.1397   -0.4218 C   0  0
   -6.2399    1.0653    0.0371 C   0  0
   -3.4678    5.5557    3.1139 H   0  0
   -5.2338    5.2300    3.1248 H   0  0
   -4.6160    6.8114    2.5402 H   0  0
   -5.2707    5.3440    0.6373 H   0  0
   -3.5042    5.6696    0.6254 H   0  0
   -1.2046    2.8964    0.0234 H   0  0
    1.3219    2.6174   -0.8949 H   0  0
    1.3398    2.6083    0.9013 H   0  0
    4.1187    2.5320   -0.9221 H   0  0
    4.1366    2.5230    0.8741 H   0  0
    5.4217    0.3913    0.8508 H   0  0
    5.4054    0.4004   -0.9454 H   0  0
    6.5532    2.4431    0.7609 H   0  0
   -4.9015   -2.5501    0.7513 H   0  0
   -5.2861   -2.2635   -0.9855 H   0  0
   -7.3994   -2.1851    0.1986 H   0  0
   -6.7166   -1.1179    1.4768 H   0  0
   -8.1331    0.0785   -0.2917 H   0  0
   -6.8589   -0.3378   -1.4844 H   0  0
   -6.4074    1.9080   -0.6498 H   0  0
   -6.5411    1.3499    1.0561 H   0  0
  1  2  1  0
  2  3  1  0
  3  4  1  0
  4  5  2  0
  4  6  1  0
  6 10  2  0
  6  7  1  0
  7 22  1  0
  7  8  2  0
  8  9  1  0
  8 19  1  0
  9 10  1  0
 10 11  1  0
 11 12  1  0
 12 13  2  0
 12 14  1  0
 14 15  1  0
 15 16  1  0
 16 17  1  0
 17 18  1  0
 19 20  1  0
 20 21  1  0
 21 22  1  0
  1 23  1  0
  1 24  1  0
  1 25  1  0
  2 26  1  0
  2 27  1  0
 11 28  1  0
 14 29  1  0
 14 30  1  0
 16 31  1  0
 16 32  1  0
 17 33  1  0
 17 34  1  0
 18 35  1  0
 19 36  1  0
 19 37  1  0
 20 38  1  0
 20 39  1  0
 21 40  1  0
 21 41  1  0
 22 42  1  0
 22 43  1  0
M  END
> <Name>
ZINC04602570

> <reference>
BDB50266170

> <quality>
0.822

> <status>
decoy

$$$$
ZINC25707693
  SciTegic06061311263D

 50 50  0  0  1  0            999 V2000
   12.4636    2.9658    2.3925 C   0  0
   11.6662    4.2713    2.4221 C   0  0  1  0  0  0
   12.2821    5.2675    1.4376 C   0  0
   10.2155    3.9920    2.0244 C   0  0
    9.6050    3.1537    3.0076 O   0  0
    8.3053    2.8081    2.8036 C   0  0
    7.6341    3.2677    1.6804 C   0  0
    6.3162    2.9123    1.4691 C   0  0
    5.6590    2.1045    2.3879 C   0  0
    6.3308    1.6448    3.5126 C   0  0
    7.6514    1.9961    3.7197 C   0  0
    8.4924    1.4213    5.1254 Cl  0  0
    4.3219    1.7495    2.1773 N   0  0
    3.6134    2.2348    0.9904 C   0  0
    2.1996    1.7132    1.0011 C   0  0
    1.8211    1.0057    1.9106 O   0  0
    1.3557    2.0329    0.0000 N   0  0
   -0.0187    1.5258    0.0104 C   0  0  1  0  0  0
    0.0021   -0.0041    0.0020 C   0  0
   -0.7077    2.0005    1.2215 C   0  0
   -1.2394    2.3668    2.1562 N   0  0
   -0.7587    2.0326   -1.2291 C   0  0  1  0  0  0
   -0.1174    1.4381   -2.4846 C   0  0
   -2.2266    1.6075   -1.1561 C   0  0
   13.5068    3.1655    2.6785 H   0  0
   12.4370    2.5416    1.3779 H   0  0
   12.0213    2.2491    3.1001 H   0  0
   11.6932    4.6945    3.4371 H   0  0
   12.2554    4.8453    0.4222 H   0  0
   13.3251    5.4693    1.7228 H   0  0
   11.7093    6.2064    1.4584 H   0  0
    9.6638    4.9414    1.9591 H   0  0
   10.1927    3.4867    1.0476 H   0  0
    8.1515    3.9155    0.9575 H   0  0
    5.7872    3.2691    0.5731 H   0  0
    5.8123    1.0013    4.2385 H   0  0
    3.8359    1.1470    2.8568 H   0  0
    4.1273    1.8804    0.0847 H   0  0
    3.5979    3.3347    0.9966 H   0  0
    1.6771    2.6338   -0.7724 H   0  0
    0.5337   -0.3695    0.8930 H   0  0
    0.5166   -0.3599   -0.9028 H   0  0
   -1.0296   -0.3855    0.0098 H   0  0
   -0.6964    3.1301   -1.2701 H   0  0
   -0.1794    0.3406   -2.4447 H   0  0
    0.9380    1.7434   -2.5382 H   0  0
   -0.6490    1.8021   -3.3762 H   0  0
   -2.6887    2.0347   -0.2539 H   0  0
   -2.2900    0.5101   -1.1153 H   0  0
   -2.7592    1.9716   -2.0470 H   0  0
  1  2  1  0
  2  3  1  0
  2  4  1  0
  4  5  1  0
  5  6  1  0
  6 11  2  0
  6  7  1  0
  7  8  2  0
  8  9  1  0
  9 10  2  0
  9 13  1  0
 10 11  1  0
 11 12  1  0
 13 14  1  0
 14 15  1  0
 15 16  2  0
 15 17  1  0
 17 18  1  0
 18 19  1  0
 18 20  1  0
 18 22  1  0
 20 21  3  0
 22 23  1  0
 22 24  1  0
  1 25  1  0
  1 26  1  0
  1 27  1  0
  2 28  1  0
  3 29  1  0
  3 30  1  0
  3 31  1  0
  4 32  1  0
  4 33  1  0
  7 34  1  0
  8 35  1  0
 10 36  1  0
 13 37  1  0
 14 38  1  0
 14 39  1  0
 17 40  1  0
 19 41  1  0
 19 42  1  0
 19 43  1  0
 22 44  1  0
 23 45  1  0
 23 46  1  0
 23 47  1  0
 24 48  1  0
 24 49  1  0
 24 50  1  0
M  END
> <Name>
ZINC25707693

> <reference>
BDB50266170

> <quality>
0.810

> <status>
decoy

$$$$
ZINC21233242
  SciTegic06061311263D

 45 46  0  0  0  0            999 V2000
   -3.3166    6.3043    2.5850 C   0  0
   -2.9759    5.8503    1.1642 C   0  0
   -2.0810    4.7083    1.2224 O   0  0
   -1.6820    4.1830    0.0468 C   0  0
   -2.0714    4.6664   -0.9984 O   0  0
   -0.7758    3.0257    0.0288 C   0  0
   -1.1256    1.7074    0.0230 C   0  0
    0.0029    0.9578    0.0090 N   0  0
    1.0987    1.7418   -0.0030 C   0  0
    0.7026    3.0510    0.0081 C   0  0
    1.5646    4.2336    0.0003 C   0  0
    2.0076    4.6685    1.0431 O   0  0
    1.9022    4.9114   -1.3026 C   0  0
    3.1003    6.2344   -1.0018 S   0  0
    3.3091    6.8373   -2.6442 C   0  0
    4.1202    7.8637   -3.0353 N   0  0
    3.9565    7.9701   -4.3889 C   0  0
    3.0937    7.0620   -4.7478 N   0  0
    2.7143    6.3847   -3.7235 N   0  5
    4.6462    8.9551   -5.2972 C   0  0  1  0  0  0
    3.8633   10.2695   -5.3124 C   0  0
    6.0654    9.2126   -4.7865 C   0  0
    2.5251    1.2564   -0.0256 C   0  0
   -2.5345    1.1729    0.0341 C   0  0
   -2.3936    6.5891    3.1112 H   0  0
   -3.8075    5.4819    3.1260 H   0  0
   -3.9946    7.1695    2.5416 H   0  0
   -3.8994    5.5654    0.6388 H   0  0
   -2.4850    6.6727    0.6231 H   0  0
    0.0208   -0.0720    0.0077 H   0  0
    2.3352    4.1764   -1.9971 H   0  0
    0.9888    5.3381   -1.7427 H   0  0
    4.6923    8.5440   -6.3164 H   0  0
    3.8169   10.6816   -4.2936 H   0  0
    2.8429   10.0855   -5.6797 H   0  0
    4.3662   10.9890   -5.9753 H   0  0
    6.6292    8.2682   -4.7754 H   0  0
    6.0204    9.6240   -3.7673 H   0  0
    6.5694    9.9316   -5.4491 H   0  0
    2.5450    0.5994   -0.9076 H   0  0
    2.5700    0.5912    0.8494 H   0  0
    3.3015    2.0355   -0.0331 H   0  0
   -2.9892    1.6696   -0.8357 H   0  0
   -2.9705    1.6569    0.9205 H   0  0
   -2.6387    0.0779    0.0273 H   0  0
  1  2  1  0
  2  3  1  0
  3  4  1  0
  4  5  2  0
  4  6  1  0
  6 10  1  0
  6  7  2  0
  7  8  1  0
  7 24  1  0
  8  9  1  0
  9 10  2  0
  9 23  1  0
 10 11  1  0
 11 12  2  0
 11 13  1  0
 13 14  1  0
 14 15  1  0
 15 16  2  0
 15 19  1  0
 16 17  1  0
 17 20  1  0
 17 18  2  0
 18 19  1  0
 20 21  1  0
 20 22  1  0
  1 25  1  0
  1 26  1  0
  1 27  1  0
  2 28  1  0
  2 29  1  0
  8 30  1  0
 13 31  1  0
 13 32  1  0
 20 33  1  0
 21 34  1  0
 21 35  1  0
 21 36  1  0
 22 37  1  0
 22 38  1  0
 22 39  1  0
 23 40  1  0
 23 41  1  0
 23 42  1  0
 24 43  1  0
 24 44  1  0
 24 45  1  0
M  CHG  1  19  -1
M  END
> <Name>
ZINC21233242

> <reference>
BDB50266170

> <quality>
0.808

> <status>
decoy

$$$$
ZINC08143815
  SciTegic06061311263D

 40 40  0  0  0  0            999 V2000
   -1.0426    1.5997   -2.7755 C   0  0
    0.2600    0.8850   -2.5239 C   0  0
    1.3698    1.5855   -2.2843 C   0  0
    2.6359    0.8916   -2.0459 C   0  0
    3.7604    1.6014   -1.8031 C   0  0
    5.0259    0.9079   -1.5648 C   0  0
    5.0665   -0.3085   -1.5852 O   0  0
    6.1471    1.6156   -1.3228 N   0  0
    7.4146    0.9209   -1.0841 C   0  0
    8.5209    1.9487   -0.8375 C   0  0
    9.7885    1.2540   -0.5989 N   0  0
   10.9503    1.9874   -0.3480 C   0  0
   10.9333    3.3733   -0.4444 C   0  0
   12.0837    4.0953   -0.1958 C   0  0
   13.2521    3.4404    0.1489 C   0  0
   13.2726    2.0613    0.2457 C   0  0
   12.1239    1.3333    0.0039 C   0  0
   12.1452   -0.1425    0.1138 N   0  0
   11.1841   -0.7329    0.5732 O   0  0
   13.1240   -0.7665   -0.2552 O   0  0
   14.5056    4.2318    0.4200 C   0  0  1  0  0  0
   14.2393    5.5960    0.2612 F   0  0
   14.9358    3.9900    1.7290 F   0  0
   15.5054    3.8442   -0.4786 F   0  0
   -0.8447    2.2677   -3.6267 H   0  0
   -1.1984    2.2342   -1.8906 H   0  0
   -1.8895    0.9227   -2.9611 H   0  0
    0.2958   -0.2143   -2.5378 H   0  0
    1.3331    2.6847   -2.2659 H   0  0
    2.6726   -0.2076   -2.0643 H   0  0
    3.7237    2.7006   -1.7847 H   0  0
    6.1128    2.6449   -1.3057 H   0  0
    7.3160    0.2704   -0.2025 H   0  0
    7.6710    0.3111   -1.9630 H   0  0
    8.6202    2.5993   -1.7189 H   0  0
    8.2668    2.5587    0.0419 H   0  0
    9.8229    0.2247   -0.6162 H   0  0
   10.0044    3.8948   -0.7185 H   0  0
   12.0709    5.1926   -0.2720 H   0  0
   14.2047    1.5433    0.5156 H   0  0
  1  2  1  0
  2  3  2  0
  3  4  1  0
  4  5  2  0
  5  6  1  0
  6  7  2  0
  6  8  1  0
  8  9  1  0
  9 10  1  0
 10 11  1  0
 11 12  1  0
 12 17  2  0
 12 13  1  0
 13 14  2  0
 14 15  1  0
 15 16  2  0
 15 21  1  0
 16 17  1  0
 17 18  1  0
 18 19  2  0
 18 20  2  0
 21 22  1  0
 21 23  1  0
 21 24  1  0
  1 25  1  0
  1 26  1  0
  1 27  1  0
  2 28  1  0
  3 29  1  0
  4 30  1  0
  5 31  1  0
  8 32  1  0
  9 33  1  0
  9 34  1  0
 10 35  1  0
 10 36  1  0
 11 37  1  0
 13 38  1  0
 14 39  1  0
 16 40  1  0
M  END
> <Name>
ZINC08143815

> <reference>
BDB50266170

> <quality>
0.800

> <status>
decoy

$$$$
ZINC13935925
  SciTegic06061311263D

 36 36  0  0  0  0            999 V2000
   -4.5602    2.2279    8.8551 C   0  0
   -4.1242    1.5649    7.5470 C   0  0
   -2.7091    1.8535    7.3012 N   0  0
   -2.1040    1.3685    6.1989 C   0  0
   -2.9890    0.4151    5.0860 S   0  0
   -0.8021    1.6340    5.9728 N   0  0
   -0.2038    1.2300    4.7747 C   0  0
    1.0724    0.6807    4.7851 C   0  0
    1.6629    0.2814    3.6021 C   0  0
    0.9847    0.4222    2.4060 C   0  0
   -0.2880    0.9751    2.3890 C   0  0
   -0.8841    1.3770    3.5742 C   0  0
   -0.9518    1.1172    1.2117 O   0  0
   -0.2770    0.6817    0.0298 C   0  0
   -1.1740    0.9196   -1.1866 C   0  0  1  0  0  0
   -1.4924    2.4117   -1.3015 C   0  0  1  0  0  0
   -0.3026    3.1322   -1.4515 F   0  0
   -2.3126    2.6292   -2.4138 F   0  0
   -0.5134    0.4933   -2.3438 F   0  0
   -2.3638    0.1991   -1.0367 F   0  0
    3.0225   -0.3035    3.6158 N   0  0
    3.6195   -0.4324    4.6697 O   0  0
    3.5444   -0.6560    2.5732 O   0  0
   -4.4160    3.3159    8.7818 H   0  0
   -3.9566    1.8339    9.6860 H   0  0
   -5.6227    2.0116    9.0403 H   0  0
   -4.2685    0.4769    7.6213 H   0  0
   -4.7277    1.9589    6.7160 H   0  0
   -2.1766    2.4271    7.9708 H   0  0
   -0.2478    2.1344    6.6822 H   0  0
    1.6128    0.5638    5.7361 H   0  0
    1.4544    0.0956    1.4664 H   0  0
   -1.8945    1.8116    3.5631 H   0  0
   -0.0479   -0.3911    0.1112 H   0  0
    0.6583    1.2485   -0.0886 H   0  0
   -2.0119    2.7469   -0.3917 H   0  0
  1  2  1  0
  2  3  1  0
  3  4  1  0
  4  5  2  0
  4  6  1  0
  6  7  1  0
  7 12  2  0
  7  8  1  0
  8  9  2  0
  9 10  1  0
  9 21  1  0
 10 11  2  0
 11 12  1  0
 11 13  1  0
 13 14  1  0
 14 15  1  0
 15 16  1  0
 15 19  1  0
 15 20  1  0
 16 17  1  0
 16 18  1  0
 21 22  2  0
 21 23  2  0
  1 24  1  0
  1 25  1  0
  1 26  1  0
  2 27  1  0
  2 28  1  0
  3 29  1  0
  6 30  1  0
  8 31  1  0
 10 32  1  0
 12 33  1  0
 14 34  1  0
 14 35  1  0
 16 36  1  0
M  END
> <Name>
ZINC13935925

> <reference>
BDB50266170

> <quality>
0.796

> <status>
decoy

$$$$
ZINC04254031
  SciTegic06061311263D

 51 53  0  0  0  0            999 V2000
    0.7650    0.5362    4.9778 C   0  0
    1.3564    0.0220    3.8344 C   0  0
    0.8778    0.3630    2.5863 C   0  0
   -0.1971    1.2355    2.4673 C   0  0
   -0.7984    1.7582    3.6234 C   0  0
   -0.3047    1.3983    4.8808 C   0  0
   -1.9424    2.6793    3.5122 C   0  0
   -2.4354    2.9074    2.4251 O   0  0
   -2.4424    3.2691    4.6160 O   0  0
   -3.5701    4.1649    4.4313 C   0  0
   -3.9896    4.7261    5.7655 C   0  0
   -3.3965    4.4029    6.7728 O   0  0
   -5.0238    5.5872    5.8393 N   0  0
   -5.4316    6.1328    7.1363 C   0  0  2  0  0  0
   -6.9302    6.1887    7.4396 C   0  0
   -6.1611    7.4776    7.1392 C   0  0
   -0.6775    1.5841    1.2123 N   0  0
    0.0252    1.1343    0.0081 C   0  0
   -0.7061    1.6516   -1.2323 C   0  0
    0.0168    1.1889   -2.4710 C   0  0
   -0.3959    0.1047   -3.0453 C   0  0
    0.2275   -0.4841   -4.2768 C   0  0
    1.0984    0.5607   -4.9778 C   0  0
    2.0249    1.1986   -3.9349 C   0  0
    1.1665    2.0170   -2.9655 C   0  0
    1.1522    0.2542    5.9680 H   0  0
    2.2130   -0.6625    3.9228 H   0  0
    1.3476   -0.0562    1.6843 H   0  0
   -0.7700    1.8032    5.7916 H   0  0
   -4.4104    3.6116    3.9866 H   0  0
   -3.2787    4.9885    3.7630 H   0  0
   -5.5275    5.8617    4.9838 H   0  0
   -4.5483    5.7256    7.6501 H   0  0
   -7.1286    6.0802    8.5161 H   0  0
   -7.5288    5.8663    6.5749 H   0  0
   -6.3560    7.8334    6.1168 H   0  0
   -5.9544    8.0464    8.0578 H   0  0
   -1.5280    2.1590    1.1278 H   0  0
    1.0536    1.5246    0.0162 H   0  0
    0.0504    0.0348   -0.0140 H   0  0
   -1.7345    1.2613   -1.2412 H   0  0
   -0.7313    2.7511   -1.2125 H   0  0
   -1.2572   -0.4175   -2.6031 H   0  0
   -0.5640   -0.8186   -4.9636 H   0  0
    0.8491   -1.3466   -3.9946 H   0  0
    1.7017    0.0748   -5.7587 H   0  0
    0.4589    1.3357   -5.4256 H   0  0
    2.7474    1.8597   -4.4360 H   0  0
    2.5567    0.4105   -3.3817 H   0  0
    1.7831    2.3345   -2.1117 H   0  0
    0.7795    2.9070   -3.4833 H   0  0
  1  6  2  0
  1  2  1  0
  2  3  2  0
  3  4  1  0
  4  5  2  0
  4 17  1  0
  5  6  1  0
  5  7  1  0
  7  8  2  0
  7  9  1  0
  9 10  1  0
 10 11  1  0
 11 12  2  0
 11 13  1  0
 13 14  1  0
 14 16  1  0
 14 15  1  0
 15 16  1  0
 17 18  1  0
 18 19  1  0
 19 20  1  0
 20 25  1  0
 20 21  2  0
 21 22  1  0
 22 23  1  0
 23 24  1  0
 24 25  1  0
  1 26  1  0
  2 27  1  0
  3 28  1  0
  6 29  1  0
 10 30  1  0
 10 31  1  0
 13 32  1  0
 14 33  1  0
 15 34  1  0
 15 35  1  0
 16 36  1  0
 16 37  1  0
 17 38  1  0
 18 39  1  0
 18 40  1  0
 19 41  1  0
 19 42  1  0
 21 43  1  0
 22 44  1  0
 22 45  1  0
 23 46  1  0
 23 47  1  0
 24 48  1  0
 24 49  1  0
 25 50  1  0
 25 51  1  0
M  END
> <Name>
ZINC04254031

> <reference>
BDB50266170

> <quality>
0.790

> <status>
decoy

$$$$
ZINC24098111
  SciTegic06061311263D

 38 39  0  0  1  0            999 V2000
   11.8451  -10.2605   -0.2074 C   0  0
   10.8570  -10.1694    0.6478 C   0  0
    9.8948   -9.0123    0.5670 C   0  0
    8.5253   -9.5223    0.4640 N   0  0
    7.4583   -8.6358    0.3766 C   0  0
    7.4659   -7.3173    0.3703 N   0  0
    6.2802   -6.6261    0.2747 N   0  0
    5.1411   -7.2859    0.1899 C   0  0
    5.7097   -8.9782    0.2497 S   0  0
    3.4975   -6.6641    0.0600 S   0  0
    3.7081   -4.8624    0.0671 C   0  0
    2.3388   -4.1885   -0.0419 C   0  0  1  0  0  0
    2.5165   -2.6688   -0.0360 C   0  0
    1.2336   -2.0394   -0.0203 O   0  0
    1.2132   -0.6803   -0.0132 C   0  0
    0.0021   -0.0041    0.0020 C   0  0
   -0.0167    1.3772    0.0096 C   0  0
    1.1716    2.0862    0.0021 C   0  0
    2.3806    1.4134   -0.0132 C   0  0
    2.4034    0.0322   -0.0208 C   0  0
    1.1454    3.8219    0.0111 Cl  0  0
    1.7061   -4.5894   -1.2588 O   0  0
   11.9725   -9.4925   -0.9845 H   0  0
   12.5474  -11.1051   -0.1484 H   0  0
   10.7296  -10.9375    1.4249 H   0  0
    9.9881   -8.3938    1.4718 H   0  0
   10.1260   -8.4029   -0.3191 H   0  0
    8.3531  -10.5378    0.4563 H   0  0
    4.1946   -4.5537    1.0041 H   0  0
    4.3329   -4.5618   -0.7869 H   0  0
    1.7137   -4.4879    0.8122 H   0  0
    3.0824   -2.3691    0.8584 H   0  0
    3.0650   -2.3592   -0.9378 H   0  0
   -0.9427   -0.5674    0.0080 H   0  0
   -0.9769    1.9138    0.0216 H   0  0
    3.3242    1.9787   -0.0193 H   0  0
    3.3647   -0.5023   -0.0329 H   0  0
    1.5905   -5.5726   -1.2634 H   0  0
  1  2  2  0
  2  3  1  0
  3  4  1  0
  4  5  1  0
  5  9  1  0
  5  6  2  0
  6  7  1  0
  7  8  2  0
  8  9  1  0
  8 10  1  0
 10 11  1  0
 11 12  1  0
 12 13  1  0
 12 22  1  0
 13 14  1  0
 14 15  1  0
 15 20  2  0
 15 16  1  0
 16 17  2  0
 17 18  1  0
 18 19  2  0
 18 21  1  0
 19 20  1  0
  1 23  1  0
  1 24  1  0
  2 25  1  0
  3 26  1  0
  3 27  1  0
  4 28  1  0
 11 29  1  0
 11 30  1  0
 12 31  1  0
 13 32  1  0
 13 33  1  0
 16 34  1  0
 17 35  1  0
 19 36  1  0
 20 37  1  0
 22 38  1  0
M  END
> <Name>
ZINC24098111

> <reference>
BDB50266170

> <quality>
0.788

> <status>
decoy

$$$$
ZINC29162166
  SciTegic06061311263D

 45 46  0  0  1  0            999 V2000
   -8.4334   -2.1065    0.1924 C   0  0
   -7.3431   -1.0339    0.2316 C   0  0
   -5.9697   -1.6983    0.1163 C   0  0
   -4.8793   -0.6257    0.1555 C   0  0
   -3.5059   -1.2902    0.0403 C   0  0
   -2.4156   -0.2176    0.0795 C   0  0
   -1.1006   -0.8538   -0.0309 N   0  0
    0.0485   -0.0775   -0.0185 C   0  0
    1.3104   -0.6986   -0.0093 C   0  0
    2.4074    0.0190    0.0025 N   0  0
    2.3295    1.3559    0.0059 C   0  0
    3.4904    2.1475    0.0191 C   0  0
    3.3825    3.5045    0.0227 C   0  0
    2.1344    4.1239    0.0135 C   0  0
    0.9886    3.3890    0.0007 C   0  0
    1.0607    1.9857   -0.0038 C   0  0
   -0.0502    1.2382   -0.0158 N   0  0
    1.4022   -2.2028   -0.0137 C   0  5
    2.0217   -2.6602    1.2408 C   0  0
    2.4999   -3.0132    2.2090 N   0  0
    2.2423   -2.6514   -1.1816 C   0  0
    2.7177   -1.8336   -1.9333 O   0  0
    2.4625   -3.9595   -1.3867 O   0  0
    3.2809   -4.3187   -2.5311 C   0  0
   -8.2930   -2.8044    1.0310 H   0  0
   -8.3724   -2.6583   -0.7572 H   0  0
   -9.4211   -1.6295    0.2753 H   0  0
   -7.4841   -0.3367   -0.6074 H   0  0
   -7.4040   -0.4820    1.1812 H   0  0
   -5.8279   -2.3954    0.9553 H   0  0
   -5.9065   -2.2498   -0.8334 H   0  0
   -5.0202    0.0715   -0.6836 H   0  0
   -4.9403   -0.0738    1.1051 H   0  0
   -3.3641   -1.9872    0.8794 H   0  0
   -3.4427   -1.8417   -0.9093 H   0  0
   -2.5566    0.4796   -0.7595 H   0  0
   -2.4766    0.3343    1.0291 H   0  0
   -1.0295   -1.8777   -0.1177 H   0  0
    4.4825    1.6725    0.0265 H   0  0
    4.2936    4.1208    0.0330 H   0  0
    2.0741    5.2222    0.0166 H   0  0
    0.0102    3.8917   -0.0061 H   0  0
    4.2431   -3.8024   -2.3984 H   0  0
    2.7852   -3.8886   -3.4139 H   0  0
    3.4150   -5.4059   -2.6313 H   0  0
  1  2  1  0
  2  3  1  0
  3  4  1  0
  4  5  1  0
  5  6  1  0
  6  7  1  0
  7  8  1  0
  8 17  1  0
  8  9  2  0
  9 10  1  0
  9 18  1  0
 10 11  2  0
 11 16  1  0
 11 12  1  0
 12 13  2  0
 13 14  1  0
 14 15  2  0
 15 16  1  0
 16 17  2  0
 18 19  1  0
 18 21  1  0
 19 20  3  0
 21 22  2  0
 21 23  1  0
 23 24  1  0
  1 25  1  0
  1 26  1  0
  1 27  1  0
  2 28  1  0
  2 29  1  0
  3 30  1  0
  3 31  1  0
  4 32  1  0
  4 33  1  0
  5 34  1  0
  5 35  1  0
  6 36  1  0
  6 37  1  0
  7 38  1  0
 12 39  1  0
 13 40  1  0
 14 41  1  0
 15 42  1  0
 24 43  1  0
 24 44  1  0
 24 45  1  0
M  CHG  1  18  -1
M  END
> <Name>
ZINC29162166

> <reference>
BDB50266170

> <quality>
0.762

> <status>
decoy

$$$$
ZINC05710831
  SciTegic06061311263D

 52 52  0  0  0  0            999 V2000
    4.3701    3.1811    3.5681 C   0  0
    3.4795    2.1321    2.8991 C   0  0
    2.1216    2.7262    2.6264 C   0  0
    1.8891    3.8753    2.9366 O   0  0
    1.1656    1.9804    2.0379 N   0  0
   -0.1165    2.5008    1.8645 C   0  0
   -0.2854    3.8558    1.5978 C   0  0
   -1.5493    4.3718    1.4204 C   0  0
   -2.6643    3.5348    1.5198 C   0  0
   -2.4913    2.1750    1.7935 C   0  0
   -1.2242    1.6647    1.9641 C   0  0
   -4.0208    4.0852    1.3358 C   0  0
   -4.9900    3.3555    1.4223 O   0  0
   -4.1859    5.3965    1.0720 N   0  0
   -5.4739    5.9192    0.8973 N   0  0
   -5.6332    7.1840    0.6429 C   0  0
   -6.9818    7.7313    0.4599 C   0  0
   -7.1449    9.0267    0.1993 C   0  0
   -5.9440    9.9307    0.0922 C   0  0
   -8.5304    9.5889    0.0114 C   0  0
   -9.0305   10.1666    1.3370 C   0  0
  -10.4160   10.7288    1.1490 C   0  0
  -11.4095   10.2788    1.8747 C   0  0
  -11.1933    9.1177    2.8108 C   0  0
  -12.7685   10.9222    1.7735 C   0  0
    3.9133    3.5005    4.5164 H   0  0
    4.4779    4.0503    2.9026 H   0  0
    5.3615    2.7481    3.7674 H   0  0
    3.3717    1.2628    3.5645 H   0  0
    3.9369    1.8135    1.9508 H   0  0
    1.3820    1.0261    1.7162 H   0  0
    0.5920    4.5156    1.5286 H   0  0
   -1.6816    5.4415    1.2007 H   0  0
   -3.3666    1.5135    1.8725 H   0  0
   -1.0873    0.5947    2.1794 H   0  0
   -3.3651    6.0144    0.9988 H   0  0
   -4.7566    7.8439    0.5648 H   0  0
   -7.8584    7.0714    0.5380 H   0  0
   -5.3134    9.4806   -0.6887 H   0  0
   -5.4122    9.8176    1.0484 H   0  0
   -6.1980   10.9786   -0.1255 H   0  0
   -8.5036   10.3845   -0.7478 H   0  0
   -9.2100    8.7895   -0.3190 H   0  0
   -8.3527   10.9670    1.6684 H   0  0
   -9.0580    9.3714    2.0966 H   0  0
  -10.5931   11.5170    0.4024 H   0  0
  -10.3739    9.4305    3.4747 H   0  0
  -10.8108    8.3035    2.1777 H   0  0
  -12.0963    8.8270    3.3676 H   0  0
  -13.0403   10.8575    0.7096 H   0  0
  -12.6033   11.9845    2.0066 H   0  0
  -13.5234   10.4618    2.4278 H   0  0
  1  2  1  0
  2  3  1  0
  3  4  2  0
  3  5  1  0
  5  6  1  0
  6 11  2  0
  6  7  1  0
  7  8  2  0
  8  9  1  0
  9 10  2  0
  9 12  1  0
 10 11  1  0
 12 13  2  0
 12 14  1  0
 14 15  1  0
 15 16  2  0
 16 17  1  0
 17 18  2  0
 18 19  1  0
 18 20  1  0
 20 21  1  0
 21 22  1  0
 22 23  2  0
 23 24  1  0
 23 25  1  0
  1 26  1  0
  1 27  1  0
  1 28  1  0
  2 29  1  0
  2 30  1  0
  5 31  1  0
  7 32  1  0
  8 33  1  0
 10 34  1  0
 11 35  1  0
 14 36  1  0
 16 37  1  0
 17 38  1  0
 19 39  1  0
 19 40  1  0
 19 41  1  0
 20 42  1  0
 20 43  1  0
 21 44  1  0
 21 45  1  0
 22 46  1  0
 24 47  1  0
 24 48  1  0
 24 49  1  0
 25 50  1  0
 25 51  1  0
 25 52  1  0
M  END
> <Name>
ZINC05710831

> <reference>
BDB50266170

> <quality>
0.762

> <status>
decoy

$$$$
ZINC02969766
  SciTegic06061311263D

 46 47  0  0  0  0            999 V2000
   -5.7129   10.9115    0.1250 C   0  0
   -4.3997   10.1266    0.1067 C   0  0
   -4.7021    8.6268    0.1007 C   0  0
   -3.3889    7.8418    0.0825 C   0  0
   -3.6913    6.3420    0.0765 C   0  0
   -2.4339    5.5904    0.0590 N   0  0
   -2.4544    4.2428    0.0511 C   0  0
   -3.5158    3.6512    0.0585 O   0  0
   -1.1835    3.4832    0.0334 C   0  0
    0.0356    4.1671    0.0250 C   0  0
    1.2232    3.4695    0.0095 C   0  0
    1.2059    2.0767    0.0017 C   0  0
   -0.0167    1.3835    0.0096 C   0  0
   -1.2085    2.0905    0.0305 C   0  0
    0.0021   -0.0041    0.0020 N   0  5
    1.1670   -0.6741   -0.0127 C   0  0
    1.1275   -2.3856   -0.0215 S   0  0
    2.3599   -0.0592   -0.0212 N   0  0
    2.4542    1.2880   -0.0154 C   0  0
    3.5387    1.8373   -0.0232 O   0  0
    3.5834   -0.8650   -0.0377 C   0  0
    3.9950   -1.1377   -1.4858 C   0  0
    4.3445    0.0934   -2.1216 O   0  0
    4.7463   -0.0503   -3.4854 C   0  0
   -6.2851   10.6500    1.0273 H   0  0
   -6.3036   10.6609   -0.7685 H   0  0
   -5.4962   11.9899    0.1293 H   0  0
   -3.8284   10.3885   -0.7961 H   0  0
   -3.8090   10.3772    1.0001 H   0  0
   -5.2732    8.3641    1.0034 H   0  0
   -5.2919    8.3741   -0.7928 H   0  0
   -2.8175    8.1037   -0.8202 H   0  0
   -2.7982    8.0924    0.9760 H   0  0
   -4.2623    6.0793    0.9792 H   0  0
   -4.2811    6.0893   -0.8170 H   0  0
   -1.5342    6.0918    0.0527 H   0  0
    0.0466    5.2670    0.0308 H   0  0
    2.1812    4.0100    0.0033 H   0  0
   -2.1691    1.5547    0.0447 H   0  0
    3.4018   -1.8200    0.4771 H   0  0
    4.3890   -0.3193    0.4753 H   0  0
    4.8611   -1.8156   -1.4995 H   0  0
    3.1567   -1.6029   -2.0250 H   0  0
    3.9141   -0.5222   -4.0283 H   0  0
    5.6079   -0.7339   -3.5070 H   0  0
    5.0058    0.9197   -3.9347 H   0  0
  1  2  1  0
  2  3  1  0
  3  4  1  0
  4  5  1  0
  5  6  1  0
  6  7  1  0
  7  8  2  0
  7  9  1  0
  9 14  2  0
  9 10  1  0
 10 11  2  0
 11 12  1  0
 12 19  1  0
 12 13  2  0
 13 14  1  0
 13 15  1  0
 15 16  1  0
 16 17  2  0
 16 18  1  0
 18 19  1  0
 18 21  1  0
 19 20  2  0
 21 22  1  0
 22 23  1  0
 23 24  1  0
  1 25  1  0
  1 26  1  0
  1 27  1  0
  2 28  1  0
  2 29  1  0
  3 30  1  0
  3 31  1  0
  4 32  1  0
  4 33  1  0
  5 34  1  0
  5 35  1  0
  6 36  1  0
 10 37  1  0
 11 38  1  0
 14 39  1  0
 21 40  1  0
 21 41  1  0
 22 42  1  0
 22 43  1  0
 24 44  1  0
 24 45  1  0
 24 46  1  0
M  CHG  1  15  -1
M  END
> <Name>
ZINC02969766

> <reference>
BDB50266170

> <quality>
0.757

> <status>
decoy

$$$$
ZINC26994874
  SciTegic06061311263D

 48 50  0  0  1  0            999 V2000
  -11.3691    0.5470   -1.9758 C   0  0
  -10.0833    0.2299   -2.7419 C   0  0
   -8.8862    0.3348   -1.7948 C   0  0
   -7.6004    0.0177   -2.5609 C   0  0
   -6.4214    0.1210   -1.6281 C   0  0
   -5.6934    1.2254   -1.3846 N   0  0
   -4.7767    0.8606   -0.5208 C   0  0
   -4.9788   -0.4353   -0.2640 O   0  0
   -5.9243   -0.8393   -0.9075 N   0  0
   -3.7044    1.7367    0.0737 C   0  0  1  0  0  0
   -4.0718    2.0837    1.5179 C   0  0
   -2.4245    1.0242    0.0531 N   0  0
   -1.2248    1.7421    0.0444 C   0  0
   -1.2459    3.1311    0.0597 C   0  0
   -0.0609    3.8420    0.0459 C   0  0
    1.1495    3.1731    0.0211 C   0  0
    1.1764    1.7828    0.0106 C   0  0
   -0.0122    1.0676    0.0249 C   0  0
    2.4018    1.1055   -0.0140 N   0  0
    2.4711   -0.1443   -0.5138 C   0  0
    1.4960   -0.6446   -1.0333 O   0  0
    3.7603   -0.9200   -0.4272 C   0  0  2  0  0  0
    4.5059   -1.1991   -1.7337 C   0  0
    3.7749   -2.3334   -1.0128 C   0  0
    2.3063    3.8709    0.0077 F   0  0
  -11.3126    1.5675   -1.5691 H   0  0
  -11.4916   -0.1698   -1.1504 H   0  0
  -12.2302    0.4718   -2.6562 H   0  0
  -10.1405   -0.7908   -3.1480 H   0  0
   -9.9607    0.9466   -3.5673 H   0  0
   -8.8281    1.3554   -1.3887 H   0  0
   -9.0065   -0.3821   -0.9692 H   0  0
   -7.4778    0.7344   -3.3863 H   0  0
   -7.6576   -1.0030   -2.9670 H   0  0
   -3.6185    2.6618   -0.5152 H   0  0
   -4.1577    1.1592    2.1077 H   0  0
   -5.0326    2.6190    1.5344 H   0  0
   -3.2894    2.7232    1.9525 H   0  0
   -2.4085   -0.0056    0.0450 H   0  0
   -2.2070    3.6657    0.0828 H   0  0
   -0.0803    4.9418    0.0547 H   0  0
    0.0065   -0.0322    0.0208 H   0  0
    3.2502    1.5624    0.3499 H   0  0
    4.0291   -0.4766    0.5429 H   0  0
    5.5928   -1.2553   -1.5742 H   0  0
    3.9375   -0.8440   -2.6059 H   0  0
    2.8221   -2.5758   -1.5062 H   0  0
    4.4770   -2.9860   -0.4732 H   0  0
  1  2  1  0
  2  3  1  0
  3  4  1  0
  4  5  1  0
  5  9  2  0
  5  6  1  0
  6  7  2  0
  7  8  1  0
  7 10  1  0
  8  9  1  0
 10 11  1  0
 10 12  1  0
 12 13  1  0
 13 18  2  0
 13 14  1  0
 14 15  2  0
 15 16  1  0
 16 17  2  0
 16 25  1  0
 17 18  1  0
 17 19  1  0
 19 20  1  0
 20 21  2  0
 20 22  1  0
 22 24  1  0
 22 23  1  0
 23 24  1  0
  1 26  1  0
  1 27  1  0
  1 28  1  0
  2 29  1  0
  2 30  1  0
  3 31  1  0
  3 32  1  0
  4 33  1  0
  4 34  1  0
 10 35  1  0
 11 36  1  0
 11 37  1  0
 11 38  1  0
 12 39  1  0
 14 40  1  0
 15 41  1  0
 18 42  1  0
 19 43  1  0
 22 44  1  0
 23 45  1  0
 23 46  1  0
 24 47  1  0
 24 48  1  0
M  END
> <Name>
ZINC26994874

> <reference>
BDB50266170

> <quality>
0.757

> <status>
decoy

$$$$
ZINC27376853
  SciTegic06061311263D

 49 49  0  0  0  0            999 V2000
   -2.6630    4.7491   -1.1961 C   0  0
   -2.5541    3.8643    0.0473 C   0  0  2  0  0  0
   -3.6988    2.8492    0.0528 C   0  0
   -2.6391    4.7356    1.3022 C   0  0
   -1.2357    3.1346    0.0308 C   0  0
   -1.2149    1.7508    0.0173 C   0  0
   -0.0126    1.0758    0.0080 C   0  0
    1.1879    1.7933    0.0003 C   0  0
    1.1584    3.1916    0.0082 C   0  0
   -0.0520    3.8519    0.0233 C   0  0
    2.4754    1.0807   -0.0163 C   0  0
    3.6314    1.7764   -0.0236 C   0  0
    4.9108    1.0683   -0.0402 C   0  0
    4.9328   -0.1477   -0.0473 O   0  0
    6.0667    1.7639   -0.0475 O   0  0
    7.2790    1.0075   -0.0636 C   0  0
    8.4572    1.9470   -0.0698 C   0  0
    8.2767    3.1458   -0.0611 O   0  0
    9.7117    1.4545   -0.0848 N   0  0
   10.7655    2.2948   -0.0903 C   0  0
   10.5845    3.4966   -0.0816 O   0  0
   12.0200    1.8023   -0.1054 N   0  0
   13.1654    2.7156   -0.1113 C   0  0
   14.4438    1.9179   -0.1284 C   0  0
   15.3349    2.1286   -1.0652 C   0  0
   -3.6250    5.2824   -1.1848 H   0  0
   -2.6018    4.1237   -2.0989 H   0  0
   -1.8402    5.4792   -1.2007 H   0  0
   -3.6385    2.2221   -0.8490 H   0  0
   -4.6617    3.3809    0.0652 H   0  0
   -3.6211    2.2127    0.9466 H   0  0
   -3.6013    5.2685    1.3154 H   0  0
   -1.8163    5.4657    1.2994 H   0  0
   -2.5609    4.1001    2.1966 H   0  0
   -2.1600    1.1880    0.0140 H   0  0
    0.0023   -0.0241    0.0066 H   0  0
    2.0983    3.7631    0.0024 H   0  0
   -0.0769    4.9516    0.0294 H   0  0
    2.4953   -0.0191   -0.0228 H   0  0
    3.6115    2.8762   -0.0171 H   0  0
    7.3080    0.3783   -0.9654 H   0  0
    7.3248    0.3688    0.8308 H   0  0
    9.8651    0.4360   -0.0921 H   0  0
   12.1734    0.7838   -0.1128 H   0  0
   13.1387    3.3448    0.7906 H   0  0
   13.1205    3.3545   -1.0056 H   0  0
   14.6287    1.1587    0.6458 H   0  0
   15.1500    2.8878   -1.8394 H   0  0
   16.2681    1.5463   -1.0777 H   0  0
  1  2  1  0
  2  3  1  0
  2  4  1  0
  2  5  1  0
  5 10  2  0
  5  6  1  0
  6  7  2  0
  7  8  1  0
  8  9  2  0
  8 11  1  0
  9 10  1  0
 11 12  2  0
 12 13  1  0
 13 14  2  0
 13 15  1  0
 15 16  1  0
 16 17  1  0
 17 18  2  0
 17 19  1  0
 19 20  1  0
 20 21  2  0
 20 22  1  0
 22 23  1  0
 23 24  1  0
 24 25  2  0
  1 26  1  0
  1 27  1  0
  1 28  1  0
  3 29  1  0
  3 30  1  0
  3 31  1  0
  4 32  1  0
  4 33  1  0
  4 34  1  0
  6 35  1  0
  7 36  1  0
  9 37  1  0
 10 38  1  0
 11 39  1  0
 12 40  1  0
 16 41  1  0
 16 42  1  0
 19 43  1  0
 22 44  1  0
 23 45  1  0
 23 46  1  0
 24 47  1  0
 25 48  1  0
 25 49  1  0
M  END
> <Name>
ZINC27376853

> <reference>
BDB50266170

> <quality>
0.755

> <status>
decoy

$$$$
ZINC28017632
  SciTegic06061311263D

 47 49  0  0  0  0            999 V2000
    3.5664   -6.3657   -0.0687 C   0  0
    3.7371   -4.8453   -0.0539 C   0  0
    2.3606   -4.1776   -0.0410 C   0  0
    2.5313   -2.6572   -0.0262 C   0  0
    1.2457   -2.0336   -0.0141 O   0  0
    1.2191   -0.6733    0.0000 C   0  0
    2.4045    0.0431    0.0025 C   0  0
    2.3785    1.4252    0.0173 C   0  0
    1.1657    2.0986    0.0295 C   0  0
   -0.0237    1.3868    0.0270 C   0  0
   -0.0003   -0.0001    0.0122 C   0  0
   -1.2003   -0.7220    0.0101 N   0  0
   -2.3260   -0.1566   -0.4690 C   0  0
   -2.2807    0.9406   -0.9909 O   0  0
   -3.6147   -0.8698   -0.3600 C   0  0
   -4.8734   -0.4085   -0.8131 C   0  0
   -5.7523   -1.3892   -0.4999 C   0  0
   -5.0538   -2.3745    0.1040 N   0  0
   -3.8102   -2.0596    0.1727 N   0  0
   -7.2341   -1.3826   -0.7741 C   0  0  2  0  0  0
   -8.1435   -2.0776    0.2413 C   0  0
   -7.8934   -2.7178   -1.1256 C   0  0
    1.1438    3.4581    0.0435 O   0  0
    2.4064    4.1274    0.0453 C   0  0
    3.0065   -6.6641   -0.9673 H   0  0
    3.0144   -6.6825    0.8285 H   0  0
    4.5558   -6.8464   -0.0780 H   0  0
    4.2968   -4.5478    0.8451 H   0  0
    4.2891   -4.5284   -0.9511 H   0  0
    1.8005   -4.4744   -0.9400 H   0  0
    1.8075   -4.4925    0.8562 H   0  0
    3.0910   -2.3597    0.8728 H   0  0
    3.0833   -2.3403   -0.9234 H   0  0
    3.3676   -0.4882   -0.0073 H   0  0
    3.3212    1.9920    0.0194 H   0  0
   -0.9851    1.9212    0.0367 H   0  0
   -1.2226   -1.6851    0.3747 H   0  0
   -5.0917    0.5460   -1.3143 H   0  0
   -5.4597   -3.2523    0.4586 H   0  0
   -7.2026   -0.3847   -1.2358 H   0  0
   -9.1343   -1.6020    0.2878 H   0  0
   -7.5605   -2.5739    1.0311 H   0  0
   -7.1794   -3.5516   -1.0550 H   0  0
   -8.7522   -2.5784   -1.7987 H   0  0
    2.9426    3.7786   -0.8496 H   0  0
    2.9497    3.7604    0.9286 H   0  0
    2.3073    5.2229    0.0569 H   0  0
  1  2  1  0
  2  3  1  0
  3  4  1  0
  4  5  1  0
  5  6  1  0
  6 11  2  0
  6  7  1  0
  7  8  2  0
  8  9  1  0
  9 10  2  0
  9 23  1  0
 10 11  1  0
 11 12  1  0
 12 13  1  0
 13 14  2  0
 13 15  1  0
 15 19  2  0
 15 16  1  0
 16 17  2  0
 17 18  1  0
 17 20  1  0
 18 19  1  0
 20 22  1  0
 20 21  1  0
 21 22  1  0
 23 24  1  0
  1 25  1  0
  1 26  1  0
  1 27  1  0
  2 28  1  0
  2 29  1  0
  3 30  1  0
  3 31  1  0
  4 32  1  0
  4 33  1  0
  7 34  1  0
  8 35  1  0
 10 36  1  0
 12 37  1  0
 16 38  1  0
 18 39  1  0
 20 40  1  0
 21 41  1  0
 21 42  1  0
 22 43  1  0
 22 44  1  0
 24 45  1  0
 24 46  1  0
 24 47  1  0
M  END
> <Name>
ZINC28017632

> <reference>
BDB50266170

> <quality>
0.748

> <status>
decoy

$$$$
ZINC31529413
  SciTegic06061311263D

 44 45  0  0  0  0            999 V2000
   -3.6234   11.6012   -6.0800 C   0  0
   -2.7673   11.1144   -4.9092 C   0  0
   -2.7141    9.5854   -4.9174 C   0  0
   -1.8579    9.0986   -3.7465 C   0  0
   -1.8047    7.5695   -3.7547 C   0  0
   -0.9615    7.0900   -2.6014 C   0  0
   -0.4531    7.8923   -1.8472 O   0  0
   -0.7722    5.7697   -2.4082 N   0  0
    0.0117    5.3239   -1.3360 N   0  0
    0.2009    4.0036   -1.1428 C   0  0
   -0.3074    3.2013   -1.8970 O   0  0
    1.0442    3.5241    0.0105 C   0  0
    1.0966    2.0180    0.0024 C   0  0
    2.2960    1.3786   -0.0125 C   0  0
    1.7604   -0.3277   -0.0165 S   0  0
    0.0021   -0.0041    0.0020 C   0  0
   -0.0159    1.3215    0.0093 N   0  0
   -1.1276   -0.9579    0.0077 C   0  0
   -2.4413   -0.4873    0.0286 C   0  0
   -3.4915   -1.3813    0.0294 C   0  0
   -3.2440   -2.7448    0.0197 C   0  0
   -1.9413   -3.2174    0.0038 C   0  0
   -0.8839   -2.3320   -0.0020 C   0  0
   -4.2762   -3.6164    0.0263 F   0  0
   -4.6426   11.1991   -5.9824 H   0  0
   -3.1825   11.2555   -7.0266 H   0  0
   -3.6621   12.7005   -6.0747 H   0  0
   -1.7483   11.5167   -5.0077 H   0  0
   -3.2081   11.4601   -3.9625 H   0  0
   -3.7328    9.1824   -4.8185 H   0  0
   -2.2725    9.2378   -5.8630 H   0  0
   -0.8389    9.5009   -3.8451 H   0  0
   -2.2987    9.4443   -2.7998 H   0  0
   -1.3630    7.2219   -4.7003 H   0  0
   -2.8234    7.1665   -3.6558 H   0  0
   -1.2038    5.0884   -3.0488 H   0  0
    0.4434    6.0052   -0.6954 H   0  0
    2.0632    3.9264   -0.0880 H   0  0
    0.6034    3.8698    0.9572 H   0  0
    3.3140    1.7952   -0.0200 H   0  0
   -2.6388    0.5947    0.0444 H   0  0
   -4.5274   -1.0114    0.0378 H   0  0
   -1.7503   -4.3007   -0.0042 H   0  0
    0.1497   -2.7082   -0.0142 H   0  0
  1  2  1  0
  2  3  1  0
  3  4  1  0
  4  5  1  0
  5  6  1  0
  6  7  2  0
  6  8  1  0
  8  9  1  0
  9 10  1  0
 10 11  2  0
 10 12  1  0
 12 13  1  0
 13 17  1  0
 13 14  2  0
 14 15  1  0
 15 16  1  0
 16 17  2  0
 16 18  1  0
 18 23  2  0
 18 19  1  0
 19 20  2  0
 20 21  1  0
 21 22  2  0
 21 24  1  0
 22 23  1  0
  1 25  1  0
  1 26  1  0
  1 27  1  0
  2 28  1  0
  2 29  1  0
  3 30  1  0
  3 31  1  0
  4 32  1  0
  4 33  1  0
  5 34  1  0
  5 35  1  0
  8 36  1  0
  9 37  1  0
 12 38  1  0
 12 39  1  0
 14 40  1  0
 19 41  1  0
 20 42  1  0
 22 43  1  0
 23 44  1  0
M  END
> <Name>
ZINC31529413

> <reference>
BDB50266170

> <quality>
0.747

> <status>
decoy

$$$$
ZINC10378144
  SciTegic06061311263D

 45 46  0  0  0  0            999 V2000
   -0.7766    1.6061   -3.7298 C   0  0
   -0.0366    1.0992   -2.4903 C   0  0
   -0.7527    1.5927   -1.2315 C   0  0
   -0.0127    1.0858    0.0080 C   0  0
   -0.6984    1.5583    1.2133 N   0  0
   -1.6862    0.9118    1.8639 C   0  0
   -2.1662   -0.1649    1.5563 O   0  0
   -2.0467    1.6733    2.9174 N   0  0
   -1.2439    2.8222    2.8987 N   0  0
   -0.4400    2.7355    1.8784 C   0  0
    0.7740    3.9284    1.4222 S   0  0
    0.5207    5.1513    2.7323 C   0  0
    1.4795    6.2982    2.5410 C   0  0
    2.2574    6.2895    1.6106 O   0  0
    1.4725    7.3334    3.4040 N   0  0
    2.4045    8.4483    3.2180 C   0  0
    2.1937    9.4666    4.3088 C   0  0
    1.2925   10.4991    4.1256 C   0  0
    1.0940   11.4305    5.1274 C   0  0
    1.8045   11.3371    6.3093 C   0  0
    2.7112   10.3070    6.4917 C   0  0
    2.9051    9.3712    5.4895 C   0  0
    3.4059   10.2145    7.6466 F   0  0
    1.5920   12.3560    7.3991 C   0  0
   -0.7918    2.7060   -3.7249 H   0  0
   -1.8087    1.2257   -3.7231 H   0  0
   -0.2623    1.2517   -4.6352 H   0  0
   -0.0222   -0.0007   -2.4959 H   0  0
    0.9955    1.4795   -2.4970 H   0  0
   -0.7671    2.6926   -1.2250 H   0  0
   -1.7848    1.2124   -1.2225 H   0  0
    0.0017   -0.0141    0.0024 H   0  0
    1.0194    1.4661    0.0013 H   0  0
   -2.7775    1.4513    3.6085 H   0  0
    0.7003    4.6836    3.7116 H   0  0
   -0.5124    5.5266    2.6890 H   0  0
    0.8119    7.3407    4.1943 H   0  0
    2.2256    8.9179    2.2395 H   0  0
    3.4378    8.0737    3.2615 H   0  0
    0.7331   10.5793    3.1819 H   0  0
    0.3703   12.2464    4.9840 H   0  0
    3.6252    8.5522    5.6333 H   0  0
    0.5143   12.3209    7.6169 H   0  0
    1.7965   13.3276    6.9257 H   0  0
    2.2083   12.1856    8.2942 H   0  0
  1  2  1  0
  2  3  1  0
  3  4  1  0
  4  5  1  0
  5 10  1  0
  5  6  1  0
  6  7  2  0
  6  8  1  0
  8  9  1  0
  9 10  2  0
 10 11  1  0
 11 12  1  0
 12 13  1  0
 13 14  2  0
 13 15  1  0
 15 16  1  0
 16 17  1  0
 17 22  2  0
 17 18  1  0
 18 19  2  0
 19 20  1  0
 20 21  2  0
 20 24  1  0
 21 22  1  0
 21 23  1  0
  1 25  1  0
  1 26  1  0
  1 27  1  0
  2 28  1  0
  2 29  1  0
  3 30  1  0
  3 31  1  0
  4 32  1  0
  4 33  1  0
  8 34  1  0
 12 35  1  0
 12 36  1  0
 15 37  1  0
 16 38  1  0
 16 39  1  0
 18 40  1  0
 19 41  1  0
 22 42  1  0
 24 43  1  0
 24 44  1  0
 24 45  1  0
M  END
> <Name>
ZINC10378144

> <reference>
BDB50266170

> <quality>
0.741

> <status>
decoy

$$$$
ZINC16543710
  SciTegic06061311263D

 46 47  0  0  1  0            999 V2000
   -0.6469    3.5450    1.3410 C   0  0
   -0.7348    2.0192    1.2692 C   0  0  1  0  0  0
   -2.2039    1.5947    1.2197 C   0  0
   -0.0187    1.5258    0.0104 C   0  0
    0.0021   -0.0041    0.0020 C   0  0
    0.7182   -0.4975   -1.2568 C   0  0
    0.7390   -2.0273   -1.2652 C   0  0  1  0  0  0
    1.3429   -2.5219   -2.5810 C   0  0
    1.5485   -2.5109   -0.1440 N   0  0
    1.3281   -3.7388    0.3660 C   0  0
    0.4596   -4.4434   -0.1031 O   0  0
    2.1609   -4.2362    1.5193 C   0  0
    1.6276   -5.9054    1.9728 S   0  0
    2.7353   -6.2293    3.3043 C   0  0
    2.6680   -7.4241    3.9606 N   0  0
    3.5004   -7.7091    4.9787 C   0  0
    3.4306   -8.7831    5.5512 O   0  0
    4.4649   -6.7334    5.3839 C   0  0
    5.4551   -6.8046    6.4446 C   0  0
    6.2684   -5.7587    6.6528 C   0  0
    5.7537   -4.5814    5.4170 S   0  0
    4.4604   -5.5285    4.6559 C   0  0
    3.6138   -5.3127    3.6566 N   0  0
   -1.1613    3.9008    2.2459 H   0  0
   -1.1246    3.9831    0.4522 H   0  0
    0.4091    3.8509    1.3766 H   0  0
   -0.2566    1.5822    2.1582 H   0  0
   -2.6830    2.0311    0.3308 H   0  0
   -2.7196    1.9488    2.1245 H   0  0
   -2.2678    0.4978    1.1681 H   0  0
   -0.5510    1.8896   -0.8808 H   0  0
    1.0135    1.9058    0.0016 H   0  0
    0.5346   -0.3686    0.8928 H   0  0
   -1.0295   -0.3860    0.0096 H   0  0
    1.7504   -0.1175   -1.2656 H   0  0
    0.1859   -0.1337   -2.1480 H   0  0
   -0.2882   -2.4085   -1.1670 H   0  0
    2.3702   -2.1414   -2.6801 H   0  0
    0.7355   -2.1596   -3.4235 H   0  0
    1.3582   -3.6218   -2.5877 H   0  0
    2.2861   -1.9125    0.2545 H   0  0
    3.2204   -4.2579    1.2243 H   0  0
    2.0339   -3.5647    2.3813 H   0  0
    1.9668   -8.1208    3.6711 H   0  0
    5.5368   -7.7060    7.0698 H   0  0
    7.0630   -5.6527    7.4060 H   0  0
  1  2  1  0
  2  3  1  0
  2  4  1  0
  4  5  1  0
  5  6  1  0
  6  7  1  0
  7  8  1  0
  7  9  1  0
  9 10  1  0
 10 11  2  0
 10 12  1  0
 12 13  1  0
 13 14  1  0
 14 23  2  0
 14 15  1  0
 15 16  1  0
 16 17  2  0
 16 18  1  0
 18 22  2  0
 18 19  1  0
 19 20  2  0
 20 21  1  0
 21 22  1  0
 22 23  1  0
  1 24  1  0
  1 25  1  0
  1 26  1  0
  2 27  1  0
  3 28  1  0
  3 29  1  0
  3 30  1  0
  4 31  1  0
  4 32  1  0
  5 33  1  0
  5 34  1  0
  6 35  1  0
  6 36  1  0
  7 37  1  0
  8 38  1  0
  8 39  1  0
  8 40  1  0
  9 41  1  0
 12 42  1  0
 12 43  1  0
 15 44  1  0
 19 45  1  0
 20 46  1  0
M  END
> <Name>
ZINC16543710

> <reference>
BDB50266170

> <quality>
0.739

> <status>
decoy

$$$$
ZINC21080974
  SciTegic06061311263D

 43 45  0  0  0  0            999 V2000
   -1.2108   -0.8984    0.0088 C   0  0
    0.0021   -0.0041    0.0020 C   0  0
    1.2844   -0.4201   -0.0125 C   0  0
    2.0933    0.7319   -0.0140 C   0  0
    1.2492    1.8042   -0.0002 C   0  0
   -0.0161    1.3393    0.0094 O   0  0
    1.6486    3.2148    0.0036 C   0  0
    0.7415    4.1479    0.0177 N   0  0
    1.1232    5.4959    0.0213 N   0  0
    0.1565    6.4903    0.0364 C   0  0
    0.3894    7.8377    0.0415 N   0  0
   -0.8188    8.4750    0.0570 C   0  0
   -1.7594    7.5607    0.0614 N   0  0
   -1.1413    6.3036    0.0426 N   0  0
   -1.0697   10.2190    0.0691 S   0  0
   -2.8743   10.4026    0.0881 C   0  0
   -3.2301   11.8670    0.0997 C   0  0
   -2.3560   12.7011    0.0956 O   0  0
   -4.5181   12.2446    0.1146 O   0  0
   -4.7866   13.6715    0.1251 C   0  0  2  0  0  0
   -4.9403   14.1696    1.5770 C   0  0
   -6.0599   15.2368    1.4960 C   0  0
   -7.0399   14.6263    0.4636 C   0  0
   -6.1216   13.9619   -0.5828 C   0  0
   -1.7806   -0.5433   -0.8626 H   0  0
   -1.7638   -0.5528    0.8947 H   0  0
   -1.0139   -1.9806    0.0011 H   0  0
    1.6329   -1.4634   -0.0215 H   0  0
    3.1928    0.7620   -0.0243 H   0  0
    2.7150    3.4845   -0.0055 H   0  0
    2.1217    5.7484    0.0127 H   0  0
   -1.6220    5.3927    0.0350 H   0  0
   -3.2836    9.9194    0.9875 H   0  0
   -3.3006    9.9293   -0.8087 H   0  0
   -3.9502   14.1752   -0.3816 H   0  0
   -4.0030   14.6310    1.9213 H   0  0
   -5.2539   13.3419    2.2301 H   0  0
   -6.5546   15.3455    2.4725 H   0  0
   -5.6550   16.1880    1.1201 H   0  0
   -7.6375   15.4204   -0.0080 H   0  0
   -7.6739   13.8678    0.9461 H   0  0
   -6.5732   13.0213   -0.9312 H   0  0
   -5.9561   14.6506   -1.4244 H   0  0
  1  2  1  0
  2  6  1  0
  2  3  2  0
  3  4  1  0
  4  5  2  0
  5  6  1  0
  5  7  1  0
  7  8  2  0
  8  9  1  0
  9 10  1  0
 10 14  1  0
 10 11  2  0
 11 12  1  0
 12 13  2  0
 12 15  1  0
 13 14  1  0
 15 16  1  0
 16 17  1  0
 17 18  2  0
 17 19  1  0
 19 20  1  0
 20 24  1  0
 20 21  1  0
 21 22  1  0
 22 23  1  0
 23 24  1  0
  1 25  1  0
  1 26  1  0
  1 27  1  0
  3 28  1  0
  4 29  1  0
  7 30  1  0
  9 31  1  0
 14 32  1  0
 16 33  1  0
 16 34  1  0
 20 35  1  0
 21 36  1  0
 21 37  1  0
 22 38  1  0
 22 39  1  0
 23 40  1  0
 23 41  1  0
 24 42  1  0
 24 43  1  0
M  END
> <Name>
ZINC21080974

> <reference>
BDB50266170

> <quality>
0.738

> <status>
decoy

$$$$
ZINC23991768
  SciTegic06061311263D

 49 50  0  0  1  0            999 V2000
   -0.0151    8.7319    3.0924 C   0  0
   -0.4234    7.2623    2.9722 C   0  0
   -1.1928    7.0518    1.6666 C   0  0
   -1.6011    5.5822    1.5465 C   0  0
   -2.3399    5.3802    0.2929 N   0  0
   -3.6213    6.0982    0.3155 C   0  0
   -2.5425    3.9499    0.0259 C   0  0  2  0  0  0
   -3.1669    3.2852    1.2544 C   0  0
   -1.2156    3.3024   -0.2757 C   0  0
   -1.1605    1.9569   -0.4329 N   0  0
    0.0016    1.3288   -0.6981 C   0  0
    0.0413    0.1188   -0.8332 O   0  0
    1.2283    2.1482   -0.8271 C   0  0
    2.5358    1.7421   -1.1006 C   0  0
    3.5334    2.6708   -1.1774 C   0  0
    2.6717    4.2020   -0.8636 S   0  0
    1.0399    3.5379   -0.6468 C   0  0
   -0.1535    4.0538   -0.3826 N   0  0
    4.9572    2.4623   -1.4492 C   0  0
    5.3814    1.3389   -1.6424 O   0  0
    5.7984    3.5164   -1.4852 O   0  0
    7.1740    3.2396   -1.7557 C   0  0
    7.9669    4.5481   -1.7563 C   0  0
    2.8452    0.2822   -1.3101 C   0  0
   -0.9148    9.3647    3.0918 H   0  0
    0.6259    9.0062    2.2416 H   0  0
    0.5381    8.8839    4.0309 H   0  0
    0.4769    6.6303    2.9726 H   0  0
   -1.0644    6.9879    3.8230 H   0  0
   -2.0935    7.6833    1.6657 H   0  0
   -0.5529    7.3246    0.8145 H   0  0
   -0.7008    4.9502    1.5468 H   0  0
   -2.2421    5.3079    2.3973 H   0  0
   -3.4251    7.1712    0.4573 H   0  0
   -4.2217    5.7275    1.1594 H   0  0
   -4.1630    5.9381   -0.6284 H   0  0
   -3.2139    3.8294   -0.8371 H   0  0
   -4.1357    3.7571    1.4752 H   0  0
   -2.4962    3.4048    2.1180 H   0  0
   -3.3189    2.2141    1.0551 H   0  0
   -2.0250    1.4034   -0.3478 H   0  0
    7.2653    2.7560   -2.7394 H   0  0
    7.5730    2.5701   -0.9795 H   0  0
    7.8776    5.0326   -0.7728 H   0  0
    7.5691    5.2187   -2.5322 H   0  0
    9.0259    4.3358   -1.9645 H   0  0
    2.1844   -0.0338   -2.1307 H   0  0
    2.4899   -0.2179   -0.3970 H   0  0
    3.9053    0.0757   -1.5188 H   0  0
  1  2  1  0
  2  3  1  0
  3  4  1  0
  4  5  1  0
  5  6  1  0
  5  7  1  0
  7  8  1  0
  7  9  1  0
  9 18  2  0
  9 10  1  0
 10 11  1  0
 11 12  2  0
 11 13  1  0
 13 17  2  0
 13 14  1  0
 14 15  2  0
 14 24  1  0
 15 16  1  0
 15 19  1  0
 16 17  1  0
 17 18  1  0
 19 20  2  0
 19 21  1  0
 21 22  1  0
 22 23  1  0
  1 25  1  0
  1 26  1  0
  1 27  1  0
  2 28  1  0
  2 29  1  0
  3 30  1  0
  3 31  1  0
  4 32  1  0
  4 33  1  0
  6 34  1  0
  6 35  1  0
  6 36  1  0
  7 37  1  0
  8 38  1  0
  8 39  1  0
  8 40  1  0
 10 41  1  0
 22 42  1  0
 22 43  1  0
 23 44  1  0
 23 45  1  0
 23 46  1  0
 24 47  1  0
 24 48  1  0
 24 49  1  0
M  END
> <Name>
ZINC23991768

> <reference>
BDB50266170

> <quality>
0.737

> <status>
decoy

$$$$
ZINC31699380
  SciTegic06061311263D

 44 44  0  0  1  0            999 V2000
    4.8578    2.0763    0.4602 C   0  0
    3.4668    2.6982    0.3207 C   0  0
    2.4716    1.6443    0.2367 O   0  0
    1.1866    2.0256    0.1098 C   0  0
    0.9046    3.2069    0.0704 O   0  0
    0.2132    1.0972    0.0266 N   0  0
   -1.1921    1.5100   -0.0046 C   0  0  2  0  0  0
   -1.6797    1.7675    1.4226 C   0  0
   -3.0992    2.3369    1.3816 C   0  0  1  0  0  0
   -3.6354    2.4733    2.8081 C   0  0
   -3.0780    3.7119    0.7111 C   0  0
   -2.0351    0.4023   -0.6396 C   0  0
   -1.4936    0.0729   -1.9604 N   0  0
   -2.0792   -0.8821   -2.7097 C   0  0
   -3.0563   -1.4700   -2.2897 O   0  0
   -1.5319   -1.2150   -4.0448 C   0  0
   -2.1421   -2.2039   -4.8151 C   0  0
   -1.6177   -2.5044   -6.0646 C   0  0
   -0.5032   -1.8062   -6.4988 C   0  0
    0.0528   -0.8343   -5.6791 C   0  0
   -0.4673   -0.5655   -4.5007 N   0  0
    1.4502    0.0433   -6.2184 Cl  0  0
   -3.5382   -3.0470   -4.2203 Cl  0  0
    5.0673    1.4440   -0.4152 H   0  0
    4.8965    1.4629    1.3725 H   0  0
    5.6123    2.8743    0.5239 H   0  0
    3.2580    3.3300    1.1966 H   0  0
    3.4280    3.3117   -0.5915 H   0  0
    0.4573    0.0974   -0.0151 H   0  0
   -1.2906    2.4312   -0.5976 H   0  0
   -1.0105    2.4881    1.9155 H   0  0
   -1.6803    0.8228    1.9861 H   0  0
   -3.7495    1.6596    0.8086 H   0  0
   -2.9858    3.1507    3.3819 H   0  0
   -3.6513    1.4851    3.2910 H   0  0
   -4.6560    2.8826    2.7794 H   0  0
   -2.6929    3.6149   -0.3147 H   0  0
   -2.4281    4.3901    1.2835 H   0  0
   -4.0983    4.1219    0.6813 H   0  0
   -2.0081   -0.4918    0.0006 H   0  0
   -3.0746    0.7462   -0.7456 H   0  0
   -0.6654    0.5711   -2.3164 H   0  0
   -2.0769   -3.2795   -6.6957 H   0  0
   -0.0630   -2.0200   -7.4839 H   0  0
  1  2  1  0
  2  3  1  0
  3  4  1  0
  4  5  2  0
  4  6  1  0
  6  7  1  0
  7  8  1  0
  7 12  1  0
  8  9  1  0
  9 10  1  0
  9 11  1  0
 12 13  1  0
 13 14  1  0
 14 15  2  0
 14 16  1  0
 16 21  2  0
 16 17  1  0
 17 18  2  0
 17 23  1  0
 18 19  1  0
 19 20  2  0
 20 21  1  0
 20 22  1  0
  1 24  1  0
  1 25  1  0
  1 26  1  0
  2 27  1  0
  2 28  1  0
  6 29  1  0
  7 30  1  0
  8 31  1  0
  8 32  1  0
  9 33  1  0
 10 34  1  0
 10 35  1  0
 10 36  1  0
 11 37  1  0
 11 38  1  0
 11 39  1  0
 12 40  1  0
 12 41  1  0
 13 42  1  0
 18 43  1  0
 19 44  1  0
M  END
> <Name>
ZINC31699380

> <reference>
BDB50266170

> <quality>
0.736

> <status>
decoy

$$$$
ZINC17102751
  SciTegic06061311263D

 46 47  0  0  1  0            999 V2000
   -3.3754   -8.5946    2.2933 C   0  0
   -2.7183   -9.1707    1.0655 C   0  0
   -3.1161  -10.4045    0.5836 C   0  0
   -2.5161  -10.9363   -0.5428 C   0  0
   -1.5166  -10.2365   -1.1903 C   0  0
   -1.1149   -8.9975   -0.7091 C   0  0
   -1.7160   -8.4685    0.4258 C   0  0
   -0.1027   -8.2861   -1.3627 N   0  0
   -0.0375   -6.9451   -1.2447 C   0  0
   -0.9118   -6.3449   -0.6561 O   0  0
    1.1216   -6.1914   -1.8443 C   0  0  2  0  0  0
    2.4280   -6.6816   -1.2167 C   0  0
    0.9624   -4.7718   -1.5840 O   0  0
    1.4794   -3.9211   -2.4933 C   0  0
    2.0478   -4.3543   -3.4768 O   0  0
    1.3559   -2.4696   -2.2954 C   0  0
    1.8785   -1.5938   -3.2148 C   0  0
    1.4397   -0.0284   -2.4711 S   0  0
    0.6143   -0.6845   -1.0284 C   0  0
    0.7382   -1.9827   -1.2161 N   0  0
    0.0088   -0.0064    0.0158 N   0  0
   -0.0081    1.4584    0.0261 C   0  0
   -0.7220    1.9440    1.2612 C   0  0
   -0.1256    2.7771    2.0776 C   0  0
   -0.8624  -10.8173   -2.4174 C   0  0
   -3.7605   -7.6136    1.9781 H   0  0
   -2.5517   -8.4095    2.9985 H   0  0
   -4.1593   -9.2369    2.7210 H   0  0
   -3.9116  -10.9639    1.0976 H   0  0
   -2.8350  -11.9177   -0.9237 H   0  0
   -1.3940   -7.4912    0.8146 H   0  0
    0.5926   -8.7872   -1.9340 H   0  0
    1.1490   -6.3643   -2.9303 H   0  0
    2.5497   -7.7570   -1.4135 H   0  0
    2.4017   -6.5089   -0.1307 H   0  0
    3.2745   -6.1319   -1.6539 H   0  0
    2.4184   -1.7989   -4.1510 H   0  0
   -0.4298   -0.5319    0.7855 H   0  0
   -0.5324    1.8264   -0.8681 H   0  0
    1.0246    1.8371    0.0274 H   0  0
   -1.7439    1.5989    1.4773 H   0  0
    0.8963    3.1222    1.8616 H   0  0
   -0.6467    3.1316    2.9792 H   0  0
   -1.6884  -11.0073   -3.1185 H   0  0
   -0.4752  -11.7962   -2.0983 H   0  0
   -0.0808  -10.1762   -2.8511 H   0  0
  1  2  1  0
  2  7  2  0
  2  3  1  0
  3  4  2  0
  4  5  1  0
  5  6  2  0
  5 25  1  0
  6  7  1  0
  6  8  1  0
  8  9  1  0
  9 10  2  0
  9 11  1  0
 11 12  1  0
 11 13  1  0
 13 14  1  0
 14 15  2  0
 14 16  1  0
 16 20  1  0
 16 17  2  0
 17 18  1  0
 18 19  1  0
 19 20  2  0
 19 21  1  0
 21 22  1  0
 22 23  1  0
 23 24  2  0
  1 26  1  0
  1 27  1  0
  1 28  1  0
  3 29  1  0
  4 30  1  0
  7 31  1  0
  8 32  1  0
 11 33  1  0
 12 34  1  0
 12 35  1  0
 12 36  1  0
 17 37  1  0
 21 38  1  0
 22 39  1  0
 22 40  1  0
 23 41  1  0
 24 42  1  0
 24 43  1  0
 25 44  1  0
 25 45  1  0
 25 46  1  0
M  END
> <Name>
ZINC17102751

> <reference>
BDB50266170

> <quality>
0.736

> <status>
decoy

$$$$
ZINC00612374
  SciTegic06061311263D

 39 40  0  0  0  0            999 V2000
   -6.7925    6.5732    0.4821 C   0  0
   -6.6330    5.1301    0.4652 O   0  0
   -5.3750    4.6547    0.3877 C   0  0
   -4.4369    5.4245    0.3356 O   0  0
   -5.1362    3.1966    0.3661 C   0  0
   -6.2120    2.3125    0.4258 C   0  0
   -5.9821    0.9381    0.4051 C   0  0
   -4.6757    0.4515    0.3246 C   0  0
   -3.6074    1.3343    0.2653 C   0  0
   -3.8322    2.7029    0.2914 C   0  0
   -2.2995    0.8431    0.1847 N   0  0
   -1.4239    1.3961   -0.6779 C   0  0
   -1.8799    2.7634   -1.6017 S   0  0
   -0.1893    0.8726   -0.8132 N   0  0
    0.7539    1.5112   -1.6154 C   0  0
    2.0611    1.0379   -1.6517 C   0  0
    2.9876    1.6814   -2.4526 C   0  0
    2.5735    2.7807   -3.1928 C   0  0
    1.2596    3.1962   -3.1087 C   0  0
    0.3965    2.5595   -2.3402 N   0  0
   -7.1194   -0.0031    0.4678 C   0  0
   -6.9183   -1.2009    0.4493 O   0  0
   -8.3793    0.4672    0.5454 O   0  0
   -9.4471   -0.5150    0.6037 C   0  0
   -6.3156    6.9484   -0.4354 H   0  0
   -6.2096    6.9393    1.3401 H   0  0
   -7.8462    6.8823    0.5466 H   0  0
   -7.2401    2.6986    0.4891 H   0  0
   -4.4935   -0.6332    0.3082 H   0  0
   -2.9822    3.4001    0.2532 H   0  0
   -2.0060    0.0590    0.7846 H   0  0
    0.0568    0.0005   -0.3236 H   0  0
    2.3544    0.1638   -1.0518 H   0  0
    4.0288    1.3301   -2.5019 H   0  0
    3.2850    3.3151   -3.8396 H   0  0
    0.9280    4.0693   -3.6899 H   0  0
   -9.2385   -1.1480    1.4788 H   0  0
   -9.3442   -1.1384   -0.2967 H   0  0
  -10.4439   -0.0540    0.6656 H   0  0
  1  2  1  0
  2  3  1  0
  3  4  2  0
  3  5  1  0
  5 10  2  0
  5  6  1  0
  6  7  2  0
  7  8  1  0
  7 21  1  0
  8  9  2  0
  9 10  1  0
  9 11  1  0
 11 12  1  0
 12 13  2  0
 12 14  1  0
 14 15  1  0
 15 20  2  0
 15 16  1  0
 16 17  2  0
 17 18  1  0
 18 19  2  0
 19 20  1  0
 21 22  2  0
 21 23  1  0
 23 24  1  0
  1 25  1  0
  1 26  1  0
  1 27  1  0
  6 28  1  0
  8 29  1  0
 10 30  1  0
 11 31  1  0
 14 32  1  0
 16 33  1  0
 17 34  1  0
 18 35  1  0
 19 36  1  0
 24 37  1  0
 24 38  1  0
 24 39  1  0
M  END
> <Name>
ZINC00612374

> <reference>
BDB50266170

> <quality>
0.736

> <status>
decoy

$$$$
ZINC24204726
  SciTegic06061311263D

 51 52  0  0  1  0            999 V2000
   -0.3124    1.5857   -0.1761 C   0  0
   -0.4641    0.0730   -0.3487 C   0  0
    0.5548   -0.4174   -1.2864 N   0  3
    0.2486   -0.0013   -2.6615 C   0  0
    1.4834   -0.2024   -3.5422 C   0  0
    0.6938   -1.8770   -1.1966 C   0  0  2  0  0  0
   -0.6883   -2.5273   -1.2839 C   0  0
   -0.5353   -4.0494   -1.3076 C   0  0  1  0  0  0
   -1.9193   -4.7014   -1.2950 C   0  0
    0.2138   -4.4671   -2.5746 C   0  0
    1.3478   -2.2461    0.1364 C   0  0
    2.6180   -1.5289    0.2723 N   0  0
    3.3979   -1.7050    1.4104 C   0  0
    2.9580   -2.5752    2.4272 C   0  0
    3.7116   -2.7547    3.5439 C   0  0
    4.9311   -2.0617    3.6667 C   0  0
    5.8692   -2.0171    4.5994 N   0  0
    6.8020   -1.2127    4.2246 N   0  0
    6.5169   -0.7063    3.0502 C   0  0
    5.3323   -1.2212    2.6582 N   0  0
    4.5370   -1.0626    1.5214 N   0  0
    7.3596    0.2748    2.2767 C   0  0  1  0  0  0
    8.6473    0.3151    2.8221 F   0  0
    7.4324   -0.1264    0.9385 F   0  0
    6.7815    1.5466    2.3515 F   0  0
   -0.4418    2.0817   -1.1494 H   0  0
    0.6886    1.8121    0.2199 H   0  0
   -1.0751    1.9536    0.5260 H   0  0
   -0.3342   -0.4221    0.6249 H   0  0
   -1.4651   -0.1534   -0.7447 H   0  0
    1.4570    0.0033   -1.0220 H   0  0
   -0.5821   -0.6075   -3.0518 H   0  0
   -0.0373    1.0609   -2.6693 H   0  0
    1.7701   -1.2644   -3.5365 H   0  0
    2.3151    0.4034   -3.1532 H   0  0
    1.2547    0.1090   -4.5721 H   0  0
    1.3215   -2.2371   -2.0251 H   0  0
   -1.1932   -2.1960   -2.2033 H   0  0
   -1.2879   -2.2332   -0.4099 H   0  0
    0.0313   -4.3747   -0.4226 H   0  0
   -2.4867   -4.3768   -2.1797 H   0  0
   -2.4585   -4.4020   -0.3842 H   0  0
   -1.8100   -5.7958   -1.3120 H   0  0
    1.2092   -3.9991   -2.5844 H   0  0
   -0.3521   -4.1424   -3.4602 H   0  0
    0.3241   -5.5614   -2.5922 H   0  0
    0.6787   -1.9657    0.9633 H   0  0
    1.5343   -3.3297    0.1669 H   0  0
    2.9335   -0.8942   -0.4750 H   0  0
    2.0032   -3.1102    2.3172 H   0  0
    3.3732   -3.4326    4.3414 H   0  0
  1  2  1  0
  2  3  1  0
  3  4  1  0
  3  6  1  0
  4  5  1  0
  6  7  1  0
  6 11  1  0
  7  8  1  0
  8  9  1  0
  8 10  1  0
 11 12  1  0
 12 13  1  0
 13 21  2  0
 13 14  1  0
 14 15  2  0
 15 16  1  0
 16 20  1  0
 16 17  2  0
 17 18  1  0
 18 19  2  0
 19 20  1  0
 19 22  1  0
 20 21  1  0
 22 23  1  0
 22 24  1  0
 22 25  1  0
  1 26  1  0
  1 27  1  0
  1 28  1  0
  2 29  1  0
  2 30  1  0
  3 31  1  0
  4 32  1  0
  4 33  1  0
  5 34  1  0
  5 35  1  0
  5 36  1  0
  6 37  1  0
  7 38  1  0
  7 39  1  0
  8 40  1  0
  9 41  1  0
  9 42  1  0
  9 43  1  0
 10 44  1  0
 10 45  1  0
 10 46  1  0
 11 47  1  0
 11 48  1  0
 12 49  1  0
 14 50  1  0
 15 51  1  0
M  CHG  1   3   1
M  END
> <Name>
ZINC24204726

> <reference>
BDB50266170

> <quality>
0.736

> <status>
decoy

$$$$
ZINC18063110
  SciTegic06061311263D

 47 49  0  0  0  0            999 V2000
   -3.6656   -2.1691    0.1153 C   0  0
   -2.2901   -2.7839    0.0849 C   0  0
   -2.1321   -4.1347   -0.2494 C   0  0
   -3.1240   -5.1022   -0.5922 C   0  0
   -2.7485   -6.3395   -0.8711 N   0  0
   -1.4826   -6.7156   -0.8442 C   0  0
   -0.5188   -5.8694   -0.5351 N   0  0
   -0.7995   -4.6161   -0.2429 C   0  0
    0.1484   -3.1873    0.2132 S   0  0
   -1.1968   -2.0260    0.3786 C   0  0
   -1.1399   -0.6078    0.7463 C   0  0
   -2.1640    0.0445    0.8136 O   0  0
    0.0483   -0.0266    1.0100 O   0  0
    0.0290    1.3806    1.3674 C   0  0
   -1.1314   -8.1435   -1.1740 C   0  0
   -4.4578   -4.7511   -0.6325 N   0  0
   -5.4795   -5.7782   -0.8503 C   0  0
   -6.8644   -5.1280   -0.8510 C   0  0
   -7.9314   -6.2007   -1.0785 C   0  0
   -9.2249   -5.5934   -1.0791 O   0  0
  -10.2988   -6.5134   -1.2850 C   0  0
  -11.6288   -5.7572   -1.2667 C   0  0  2  0  0  0
  -12.6188   -6.0962   -0.1506 C   0  0
  -12.8973   -6.5511   -1.5854 C   0  0
   -3.6143   -1.3188   -0.5807 H   0  0
   -3.7713   -1.7547    1.1287 H   0  0
   -4.4724   -2.8725   -0.1382 H   0  0
   -0.6243    1.4676    2.2481 H   0  0
   -0.4578    1.9057    0.5323 H   0  0
    1.0339    1.7810    1.5671 H   0  0
   -1.5413   -8.3226   -2.1789 H   0  0
   -1.7073   -8.7588   -0.4671 H   0  0
   -0.0522   -8.3499   -1.1220 H   0  0
   -4.7351   -3.7668   -0.5094 H   0  0
   -5.3052   -6.2694   -1.8190 H   0  0
   -5.4268   -6.5260   -0.0453 H   0  0
   -7.0396   -4.6370    0.1176 H   0  0
   -6.9194   -4.3806   -1.6562 H   0  0
   -7.7570   -6.6918   -2.0472 H   0  0
   -7.8786   -6.9485   -0.2735 H   0  0
  -10.2957   -7.2676   -0.4842 H   0  0
  -10.1740   -7.0111   -2.2580 H   0  0
  -11.1737   -4.8314   -1.6485 H   0  0
  -13.2336   -5.2257    0.1220 H   0  0
  -12.2555   -6.9273    0.4718 H   0  0
  -12.6812   -7.6216   -1.7172 H   0  0
  -13.6578   -5.9193   -2.0675 H   0  0
  1  2  1  0
  2 10  2  0
  2  3  1  0
  3  8  1  0
  3  4  2  0
  4  5  1  0
  4 16  1  0
  5  6  2  0
  6  7  1  0
  6 15  1  0
  7  8  2  0
  8  9  1  0
  9 10  1  0
 10 11  1  0
 11 12  2  0
 11 13  1  0
 13 14  1  0
 16 17  1  0
 17 18  1  0
 18 19  1  0
 19 20  1  0
 20 21  1  0
 21 22  1  0
 22 24  1  0
 22 23  1  0
 23 24  1  0
  1 25  1  0
  1 26  1  0
  1 27  1  0
 14 28  1  0
 14 29  1  0
 14 30  1  0
 15 31  1  0
 15 32  1  0
 15 33  1  0
 16 34  1  0
 17 35  1  0
 17 36  1  0
 18 37  1  0
 18 38  1  0
 19 39  1  0
 19 40  1  0
 21 41  1  0
 21 42  1  0
 22 43  1  0
 23 44  1  0
 23 45  1  0
 24 46  1  0
 24 47  1  0
M  END
> <Name>
ZINC18063110

> <reference>
BDB50266170

> <quality>
0.733

> <status>
decoy

$$$$
ZINC02342750
  SciTegic06061311263D

 40 40  0  0  1  0            999 V2000
   -6.9731   -2.8447    1.7282 C   0  0
   -5.5185   -2.6283    2.1502 C   0  0  1  0  0  0
   -5.2282   -3.4395    3.4146 C   0  0
   -4.6352   -3.0630    1.0829 O   0  0
   -3.4527   -2.4288    0.9717 C   0  0
   -3.1667   -1.5365    1.7453 O   0  0
   -2.5863   -2.7836    0.0022 N   0  0
   -1.2545   -2.1754   -0.0484 C   0  0  1  0  0  0
   -1.3896   -0.6777   -0.1470 C   0  0
   -2.4745   -0.1598   -0.0265 O   0  0
   -0.3046    0.0809   -0.3685 O   0  0
   -0.5095    1.5160   -0.4517 C   0  0
   -0.4808   -2.5352    1.2216 C   0  0  1  0  0  0
   -1.0916   -1.9321    2.3263 F   0  0
   -0.4803   -3.9241    1.3896 F   0  0
    0.8368   -2.0785    1.1102 F   0  0
   -0.5320   -2.6786   -1.2194 N   0  0
   -1.1392   -2.6554   -2.4786 C   0  0
   -2.3789   -2.0511   -2.6419 C   0  0
   -2.9746   -2.0252   -3.8877 C   0  0
   -2.3416   -2.6104   -4.9713 C   0  0
   -1.1080   -3.2181   -4.8098 C   0  0
   -0.5062   -3.2418   -3.5668 C   0  0
   -2.9284   -2.5880   -6.1881 F   0  0
   -7.6432   -2.5155    2.5360 H   0  0
   -7.1420   -3.9124    1.5247 H   0  0
   -7.1825   -2.2617    0.8192 H   0  0
   -5.3506   -1.5603    2.3531 H   0  0
   -5.3956   -4.5078    3.2126 H   0  0
   -5.8968   -3.1108    4.2239 H   0  0
   -4.1825   -3.2844    3.7186 H   0  0
   -2.8605   -3.4823   -0.7031 H   0  0
   -0.9791    1.8176    0.4962 H   0  0
   -1.2400    1.6787   -1.2579 H   0  0
    0.4247    2.0673   -0.6343 H   0  0
    0.4232   -3.0494   -1.1150 H   0  0
   -2.8860   -1.5934   -1.7797 H   0  0
   -3.9527   -1.5393   -4.0192 H   0  0
   -0.6069   -3.6823   -5.6720 H   0  0
    0.4738   -3.7248   -3.4389 H   0  0
  1  2  1  0
  2  3  1  0
  2  4  1  0
  4  5  1  0
  5  6  2  0
  5  7  1  0
  7  8  1  0
  8  9  1  0
  8 13  1  0
  8 17  1  0
  9 10  2  0
  9 11  1  0
 11 12  1  0
 13 14  1  0
 13 15  1  0
 13 16  1  0
 17 18  1  0
 18 23  2  0
 18 19  1  0
 19 20  2  0
 20 21  1  0
 21 22  2  0
 21 24  1  0
 22 23  1  0
  1 25  1  0
  1 26  1  0
  1 27  1  0
  2 28  1  0
  3 29  1  0
  3 30  1  0
  3 31  1  0
  7 32  1  0
 12 33  1  0
 12 34  1  0
 12 35  1  0
 17 36  1  0
 19 37  1  0
 20 38  1  0
 22 39  1  0
 23 40  1  0
M  END
> <Name>
ZINC02342750

> <reference>
BDB50266170

> <quality>
0.733

> <status>
decoy

$$$$
ZINC06792306
  SciTegic06061311263D

 49 50  0  0  0  0            999 V2000
    0.9439    5.4075    2.1480 C   0  0
   -0.1965    4.6444    1.4711 C   0  0  1  0  0  0
   -1.4645    5.5003    1.4898 C   0  0
    0.1872    4.3327    0.0232 C   0  0
    1.3300    3.4161    0.0073 N   0  0
    2.6951    3.9476   -0.0033 C   0  0
    3.1562    4.1400   -1.4494 C   0  0  1  0  0  0
    4.5316    4.8103   -1.4613 C   0  0
    3.2465    2.7784   -2.1414 C   0  0
    1.1190    2.0431    0.0023 C   0  0
   -0.0166    1.3715    0.0096 N   0  0
    0.0021   -0.0041    0.0020 N   0  0
    1.1538   -0.6449   -0.0124 C   0  0
    2.3128    0.7144   -0.0162 S   0  0
    1.4011   -2.0158   -0.0218 N   0  0
    0.3721   -2.8862   -0.0167 C   0  0
   -0.7720   -2.4749   -0.0039 O   0  0
    0.6114   -4.2126   -0.0257 N   0  0
   -0.5071   -5.1587   -0.0201 C   0  0
    0.0269   -6.5679   -0.0323 C   0  0
    0.3158   -7.3090    1.0524 C   0  0
    0.7854   -8.5571    0.5825 C   0  0
    0.7554   -8.5039   -0.7613 C   0  0
    0.2896   -7.2988   -1.1280 O   0  0
    0.6691    5.6318    3.1892 H   0  0
    1.1290    6.3476    1.6076 H   0  0
    1.8559    4.7927    2.1349 H   0  0
   -0.3806    3.7045    2.0120 H   0  0
   -1.2816    6.4405    0.9488 H   0  0
   -1.7414    5.7247    2.5305 H   0  0
   -2.2848    4.9523    1.0033 H   0  0
   -0.6656    3.8636   -0.4894 H   0  0
    0.4585    5.2648   -0.4942 H   0  0
    3.3686    3.2417    0.5047 H   0  0
    2.7161    4.9152    0.5195 H   0  0
    2.4340    4.7754   -1.9830 H   0  0
    5.2546    4.1756   -0.9281 H   0  0
    4.4677    5.7895   -0.9642 H   0  0
    4.8637    4.9489   -2.5008 H   0  0
    2.2581    2.2957   -2.1336 H   0  0
    3.9687    2.1423   -1.6086 H   0  0
    3.5780    2.9160   -3.1812 H   0  0
    2.3703   -2.3642   -0.0326 H   0  0
    1.5806   -4.5610   -0.0365 H   0  0
   -1.1133   -5.0047    0.8848 H   0  0
   -1.1309   -4.9960   -0.9114 H   0  0
    0.2075   -7.0028    2.1034 H   0  0
    1.1125   -9.4083    1.1977 H   0  0
    1.0606   -9.3106   -1.4440 H   0  0
  1  2  1  0
  2  3  1  0
  2  4  1  0
  4  5  1  0
  5  6  1  0
  5 10  1  0
  6  7  1  0
  7  8  1  0
  7  9  1  0
 10 14  1  0
 10 11  2  0
 11 12  1  0
 12 13  2  0
 13 14  1  0
 13 15  1  0
 15 16  1  0
 16 17  2  0
 16 18  1  0
 18 19  1  0
 19 20  1  0
 20 24  1  0
 20 21  2  0
 21 22  1  0
 22 23  2  0
 23 24  1  0
  1 25  1  0
  1 26  1  0
  1 27  1  0
  2 28  1  0
  3 29  1  0
  3 30  1  0
  3 31  1  0
  4 32  1  0
  4 33  1  0
  6 34  1  0
  6 35  1  0
  7 36  1  0
  8 37  1  0
  8 38  1  0
  8 39  1  0
  9 40  1  0
  9 41  1  0
  9 42  1  0
 15 43  1  0
 18 44  1  0
 19 45  1  0
 19 46  1  0
 21 47  1  0
 22 48  1  0
 23 49  1  0
M  END
> <Name>
ZINC06792306

> <reference>
BDB50266170

> <quality>
0.731

> <status>
decoy

$$$$
ZINC16854567
  SciTegic06061311263D

 49 50  0  0  0  0            999 V2000
    1.3921    3.1276    2.4264 C   0  0
    0.9612    1.8392    3.0787 C   0  0
   -0.1190    1.1591    2.5957 C   0  0
   -0.5051   -0.0380    3.2244 C   0  0
   -1.4688   -0.6688    2.8221 O   0  0
    0.2148   -0.4790    4.2781 N   0  0
    1.2829    0.2420    4.7160 C   0  0
    1.6351    1.3662    4.1244 N   0  0
    2.0047   -0.2086    5.7897 N   0  0
    3.0240    0.5851    6.3312 C   0  0
    2.9190    1.9682    6.3009 C   0  0
    3.9242    2.7490    6.8392 C   0  0
    5.0399    2.1556    7.4005 C   0  0
    5.1538    0.7781    7.4300 C   0  0
    4.1486   -0.0120    6.8964 C   0  0
    4.2596   -1.3670    6.9239 O   0  0
    5.4401   -1.9093    7.5191 C   0  0
   -0.8891    1.6856    1.4122 C   0  0
   -0.3680    1.0296    0.1319 C   0  0
   -1.2950    1.6633   -1.2928 S   0  0
   -0.5655    0.7987   -2.7108 C   0  0
   -1.2646    1.2465   -3.9959 C   0  0  1  0  0  0
   -0.5687    0.6132   -5.2024 C   0  0
   -2.7286    0.8032   -3.9610 C   0  0
    2.4419    2.9684    2.1391 H   0  0
    1.3826    3.8762    3.2323 H   0  0
    0.7635    3.4219    1.5730 H   0  0
   -0.0434   -1.3580    4.7489 H   0  0
    1.7979   -1.1310    6.1988 H   0  0
    2.0359    2.4431    5.8486 H   0  0
    3.8365    3.8454    6.8211 H   0  0
    5.8390    2.7813    7.8247 H   0  0
    6.0427    0.3093    7.8772 H   0  0
    5.4765   -1.5175    8.5463 H   0  0
    6.2895   -1.4830    6.9652 H   0  0
    5.4575   -3.0091    7.5041 H   0  0
   -1.9567    1.4510    1.5354 H   0  0
   -0.7587    2.7757    1.3440 H   0  0
    0.6995    1.2642    0.0078 H   0  0
   -0.4986   -0.0606    0.1978 H   0  0
   -0.6920   -0.2867   -2.5845 H   0  0
    0.5063    1.0380   -2.7745 H   0  0
   -1.2150    2.3423   -4.0775 H   0  0
   -0.6180   -0.4827   -5.1218 H   0  0
    0.4840    0.9314   -5.2285 H   0  0
   -1.0709    0.9348   -6.1267 H   0  0
   -3.2300    1.2581   -3.0941 H   0  0
   -2.7792   -0.2926   -3.8797 H   0  0
   -3.2319    1.1248   -4.8847 H   0  0
  1  2  1  0
  2  8  1  0
  2  3  2  0
  3  4  1  0
  3 18  1  0
  4  5  2  0
  4  6  1  0
  6  7  1  0
  7  8  2  0
  7  9  1  0
  9 10  1  0
 10 15  2  0
 10 11  1  0
 11 12  2  0
 12 13  1  0
 13 14  2  0
 14 15  1  0
 15 16  1  0
 16 17  1  0
 18 19  1  0
 19 20  1  0
 20 21  1  0
 21 22  1  0
 22 23  1  0
 22 24  1  0
  1 25  1  0
  1 26  1  0
  1 27  1  0
  6 28  1  0
  9 29  1  0
 11 30  1  0
 12 31  1  0
 13 32  1  0
 14 33  1  0
 17 34  1  0
 17 35  1  0
 17 36  1  0
 18 37  1  0
 18 38  1  0
 19 39  1  0
 19 40  1  0
 21 41  1  0
 21 42  1  0
 22 43  1  0
 23 44  1  0
 23 45  1  0
 23 46  1  0
 24 47  1  0
 24 48  1  0
 24 49  1  0
M  END
> <Name>
ZINC16854567

> <reference>
BDB50266170

> <quality>
0.729

> <status>
decoy

$$$$
ZINC27386645
  SciTegic06061311263D

 51 52  0  0  1  0            999 V2000
   -2.4118   -3.5735   -6.0279 C   0  0
   -1.1789   -4.1054   -5.3436 C   0  0
   -0.3053   -4.9257   -6.0337 C   0  0
    0.8262   -5.4157   -5.4087 C   0  0
    1.0904   -5.0812   -4.0944 C   0  0
    0.2130   -4.2628   -3.3984 C   0  0
   -0.9222   -3.7728   -4.0279 C   0  0
    0.4678   -3.9370   -2.1038 O   0  0
   -0.4761   -3.0853   -1.4514 C   0  0
   -0.0241   -2.8313   -0.0120 C   0  0
    1.2340   -2.0807   -0.0205 N   0  0
    2.5130   -2.7950   -0.0366 C   0  0
    2.9723   -3.0510    1.4002 C   0  0
    4.2880   -3.7857    1.3837 C   0  0
    4.8071   -4.0761    0.3267 O   0  0
    4.8877   -4.1202    2.5434 N   0  0
    1.2141   -0.6815   -0.0132 C   0  0
    0.0021   -0.0041    0.0020 C   0  0
   -0.0167    1.3769    0.0096 C   0  0
    1.1747    2.0871    0.0021 C   0  0
    2.3858    1.4112   -0.0132 C   0  0
    2.4064    0.0303   -0.0208 C   0  0
    1.1554    3.4469    0.0091 O   0  0
    2.4192    4.1138    0.0007 C   0  0
    2.3276   -5.6102   -3.4157 C   0  0
   -2.3414   -2.4797   -5.9346 H   0  0
   -3.2522   -3.9003   -5.3978 H   0  0
   -2.5169   -3.9010   -7.0728 H   0  0
   -0.5111   -5.1888   -7.0818 H   0  0
    1.5167   -6.0724   -5.9581 H   0  0
   -1.6172   -3.1199   -3.4795 H   0  0
   -1.4643   -3.5685   -1.4447 H   0  0
   -0.5396   -2.1280   -1.9895 H   0  0
   -0.7937   -2.2500    0.5170 H   0  0
    0.1267   -3.7925    0.5012 H   0  0
    2.3901   -3.7556   -0.5583 H   0  0
    3.2669   -2.1877   -0.5590 H   0  0
    2.2201   -3.6592    1.9239 H   0  0
    3.0957   -2.0908    1.9224 H   0  0
    4.4468   -3.8737    3.4410 H   0  0
    5.7869   -4.6223    2.5321 H   0  0
   -0.9428   -0.5672    0.0080 H   0  0
   -0.9768    1.9137    0.0216 H   0  0
    3.3302    1.9752   -0.0193 H   0  0
    3.3670   -0.5055   -0.0329 H   0  0
    2.9500    3.7593   -0.8952 H   0  0
    2.9665    3.7504    0.8830 H   0  0
    2.3222    5.2095    0.0071 H   0  0
    3.1639   -5.2833   -4.0511 H   0  0
    2.2581   -6.7042   -3.5074 H   0  0
    2.4380   -5.2812   -2.3719 H   0  0
  1  2  1  0
  2  7  2  0
  2  3  1  0
  3  4  2  0
  4  5  1  0
  5  6  2  0
  5 25  1  0
  6  7  1  0
  6  8  1  0
  8  9  1  0
  9 10  1  0
 10 11  1  0
 11 12  1  0
 11 17  1  0
 12 13  1  0
 13 14  1  0
 14 15  2  0
 14 16  1  0
 17 22  2  0
 17 18  1  0
 18 19  2  0
 19 20  1  0
 20 21  2  0
 20 23  1  0
 21 22  1  0
 23 24  1  0
  1 26  1  0
  1 27  1  0
  1 28  1  0
  3 29  1  0
  4 30  1  0
  7 31  1  0
  9 32  1  0
  9 33  1  0
 10 34  1  0
 10 35  1  0
 12 36  1  0
 12 37  1  0
 13 38  1  0
 13 39  1  0
 16 40  1  0
 16 41  1  0
 18 42  1  0
 19 43  1  0
 21 44  1  0
 22 45  1  0
 24 46  1  0
 24 47  1  0
 24 48  1  0
 25 49  1  0
 25 50  1  0
 25 51  1  0
M  END
> <Name>
ZINC27386645

> <reference>
BDB50266170

> <quality>
0.727

> <status>
decoy

$$$$
ZINC22264743
  SciTegic06061311263D

 51 51  0  0  1  0            999 V2000
    6.7602    1.1650   -9.6971 C   0  0
    6.7916    1.6078   -8.2329 C   0  0
    6.2007    0.5040   -7.3535 C   0  0
    6.2320    0.9468   -5.8893 C   0  0
    5.6411   -0.1570   -5.0100 C   0  0
    5.6711    0.2670   -3.6080 N   0  0
    5.1983   -0.5506   -2.6464 C   0  0
    4.7481   -1.6373   -2.9418 O   0  0
    5.2292   -0.1144   -1.2043 C   0  0  2  0  0  0
    6.6755    0.1536   -0.7833 C   0  0
    4.6634   -1.1714   -0.3622 N   0  0
    3.7820   -0.7757    0.9827 S   0  0
    4.5466    0.1820    1.7021 O   0  0
    3.3545   -2.0004    1.5629 O   0  0
    2.3293    0.0531    0.4284 C   0  0
    2.3097    1.4329    0.3458 C   0  0
    1.1704    2.0831   -0.0899 C   0  0
    0.0504    1.3536   -0.4427 C   0  0
    0.0700   -0.0261   -0.3602 C   0  0
    1.2094   -0.6763    0.0756 C   0  0
    1.2309   -2.1805    0.1652 C   0  0
   -1.1940    2.0628   -0.9113 C   0  0
    3.5307    2.2282    0.7304 C   0  0
    5.7207    0.9723  -10.0008 H   0  0
    7.3526    0.2458   -9.8161 H   0  0
    7.1849    1.9582  -10.3299 H   0  0
    7.8315    1.7999   -7.9300 H   0  0
    6.1992    2.5270   -8.1139 H   0  0
    5.1607    0.3116   -7.6557 H   0  0
    6.7926   -0.4158   -7.4704 H   0  0
    7.2719    1.1389   -5.5863 H   0  0
    5.6395    1.8659   -5.7703 H   0  0
    4.6011   -0.3494   -5.3122 H   0  0
    6.2330   -1.0768   -5.1269 H   0  0
    6.0535    1.1899   -3.3571 H   0  0
    4.6367    0.8049   -1.0866 H   0  0
    7.1012    0.9472   -1.4149 H   0  0
    7.2688   -0.7652   -0.9005 H   0  0
    6.6987    0.4721    0.2693 H   0  0
    4.8139   -2.1606   -0.6067 H   0  0
    1.1549    3.1810   -0.1559 H   0  0
   -0.8210   -0.6066   -0.6413 H   0  0
    1.4964   -2.4009    1.2097 H   0  0
    2.0814   -2.4919   -0.4591 H   0  0
    0.2879   -2.6580   -0.1393 H   0  0
   -0.8702    2.6723   -1.7678 H   0  0
   -1.4513    2.7565   -0.0973 H   0  0
   -2.0230    1.3860   -1.1656 H   0  0
    4.3390    1.8356    0.0960 H   0  0
    3.7538    1.9272    1.7646 H   0  0
    3.4043    3.3160    0.6264 H   0  0
  1  2  1  0
  2  3  1  0
  3  4  1  0
  4  5  1  0
  5  6  1  0
  6  7  1  0
  7  8  2  0
  7  9  1  0
  9 10  1  0
  9 11  1  0
 11 12  1  0
 12 13  2  0
 12 14  2  0
 12 15  1  0
 15 20  2  0
 15 16  1  0
 16 17  2  0
 16 23  1  0
 17 18  1  0
 18 19  2  0
 18 22  1  0
 19 20  1  0
 20 21  1  0
  1 24  1  0
  1 25  1  0
  1 26  1  0
  2 27  1  0
  2 28  1  0
  3 29  1  0
  3 30  1  0
  4 31  1  0
  4 32  1  0
  5 33  1  0
  5 34  1  0
  6 35  1  0
  9 36  1  0
 10 37  1  0
 10 38  1  0
 10 39  1  0
 11 40  1  0
 17 41  1  0
 19 42  1  0
 21 43  1  0
 21 44  1  0
 21 45  1  0
 22 46  1  0
 22 47  1  0
 22 48  1  0
 23 49  1  0
 23 50  1  0
 23 51  1  0
M  END
> <Name>
ZINC22264743

> <reference>
BDB50266170

> <quality>
0.726

> <status>
decoy

$$$$
ZINC24294773
  SciTegic06061311263D

 54 56  0  0  0  0            999 V2000
   -4.8399    0.5766   -0.9859 C   0  0
   -3.7785    1.6431   -0.7091 C   0  0
   -2.4811    1.0080   -0.5616 O   0  0
   -1.4298    1.8142   -0.3121 C   0  0
   -1.5933    3.0153   -0.2204 O   0  0
   -0.0860    1.2409   -0.1511 C   0  0
    0.1071   -0.1459   -0.1319 C   0  0
    1.3300   -0.6213    0.0092 N   0  0
    2.3730    0.1922    0.1326 C   0  0
    2.2418    1.5111    0.1205 N   0  0
    1.0472    2.0737   -0.0171 C   0  0
    0.9151    3.4459   -0.0297 N   0  0
    3.9811   -0.5039    0.3175 S   0  0
    3.5691   -2.2655    0.2648 C   0  0
    4.8285   -3.0805    0.4089 C   0  0
    5.8992   -2.5250    0.5348 O   0  0
    4.7649   -4.4268    0.3978 N   0  0
    5.9892   -5.2191    0.5378 C   0  0
    5.6461   -6.6858    0.4940 C   0  0
    5.6247   -7.3653   -0.7171 C   0  0
    5.3049   -8.7108   -0.7135 C   0  0
    5.0170   -9.3346    0.4965 C   0  0
    5.0485   -8.6521    1.6306 N   0  0
    5.3555   -7.3688    1.6576 C   0  0
    4.6939  -10.6864    0.5148 N   0  0
    3.5469  -10.9659   -0.3613 C   0  0
    3.2636  -12.4704   -0.3577 C   0  0
    3.0370  -12.9045    0.9860 O   0  0
    4.1344  -12.6484    1.8666 C   0  0
    4.4266  -11.1457    1.8855 C   0  0
   -4.8738   -0.1347   -0.1475 H   0  0
   -4.5882    0.0390   -1.9120 H   0  0
   -5.8231    1.0571   -1.0978 H   0  0
   -3.7450    2.3537   -1.5481 H   0  0
   -4.0301    2.1807    0.2170 H   0  0
   -0.7487   -0.8295   -0.2330 H   0  0
   -0.0194    3.8654   -0.1379 H   0  0
    1.7444    4.0488    0.0684 H   0  0
    3.0880   -2.5021   -0.6957 H   0  0
    2.8810   -2.5060    1.0886 H   0  0
    3.8556   -4.8986    0.2909 H   0  0
    6.6775   -4.9793   -0.2861 H   0  0
    6.4712   -4.9846    1.4984 H   0  0
    5.8569   -6.8450   -1.6580 H   0  0
    5.2785   -9.2801   -1.6544 H   0  0
    5.3801   -6.8366    2.6200 H   0  0
    3.7777  -10.6390   -1.3859 H   0  0
    2.6626  -10.4255    0.0075 H   0  0
    2.3705  -12.6774   -0.9655 H   0  0
    4.1268  -13.0087   -0.7761 H   0  0
    3.8770  -12.9846    2.8818 H   0  0
    5.0242  -13.1902    1.5136 H   0  0
    5.3065  -10.9512    2.5163 H   0  0
    3.5566  -10.6084    2.2910 H   0  0
  1  2  1  0
  2  3  1  0
  3  4  1  0
  4  5  2  0
  4  6  1  0
  6 11  2  0
  6  7  1  0
  7  8  2  0
  8  9  1  0
  9 10  2  0
  9 13  1  0
 10 11  1  0
 11 12  1  0
 13 14  1  0
 14 15  1  0
 15 16  2  0
 15 17  1  0
 17 18  1  0
 18 19  1  0
 19 24  2  0
 19 20  1  0
 20 21  2  0
 21 22  1  0
 22 23  2  0
 22 25  1  0
 23 24  1  0
 25 30  1  0
 25 26  1  0
 26 27  1  0
 27 28  1  0
 28 29  1  0
 29 30  1  0
  1 31  1  0
  1 32  1  0
  1 33  1  0
  2 34  1  0
  2 35  1  0
  7 36  1  0
 12 37  1  0
 12 38  1  0
 14 39  1  0
 14 40  1  0
 17 41  1  0
 18 42  1  0
 18 43  1  0
 20 44  1  0
 21 45  1  0
 24 46  1  0
 26 47  1  0
 26 48  1  0
 27 49  1  0
 27 50  1  0
 29 51  1  0
 29 52  1  0
 30 53  1  0
 30 54  1  0
M  END
> <Name>
ZINC24294773

> <reference>
BDB50085459

> <quality>
0.882

> <status>
decoy

$$$$
ZINC26721842
  SciTegic06061311263D

 50 51  0  0  0  0            999 V2000
   -5.3193    4.5675    1.3310 C   0  0
   -4.8472    4.1217    0.0580 O   0  0
   -3.7668    3.2956    0.0548 C   0  0
   -3.1776    2.9247    1.2489 C   0  0
   -2.0673    2.0762    1.2449 C   0  0
   -1.5557    1.6048    0.0325 C   0  0
   -2.1452    1.9833   -1.1586 C   0  0
   -3.2551    2.8245   -1.1513 C   0  0
   -3.8363    3.1906   -2.3237 O   0  0
   -3.3418    4.3758   -2.9506 C   0  0
   -1.6441    1.5299   -2.3389 O   0  0
   -2.1769    0.3027   -2.8411 C   0  0
   -0.3797    0.7058    0.0243 N   0  0
   -0.5354   -0.5011    0.0765 O   0  0
    0.7434    1.1727   -0.0397 O   0  0
   -1.4369    1.6785    2.5174 C   0  0
   -0.4718    0.9403    2.5126 O   0  0
   -1.9312    2.1337    3.6854 O   0  0
   -1.2603    1.7011    4.8983 C   0  0
   -1.9476    2.3058    6.0954 C   0  0
   -2.9084    3.0301    5.9415 O   0  0
   -1.4543    2.0182    7.4481 C   0  0
   -0.3486    1.1775    7.6286 C   0  0
    0.1104    0.9174    8.8887 C   0  0
   -0.5262    1.4772    9.9931 C   0  0
   -1.6291    2.3087    9.8188 C   0  0
   -2.0915    2.5791    8.5622 C   0  0
   -0.0579    1.2047   11.2764 N   0  0
   -0.9235    1.1214   12.3061 C   0  0
   -2.1200    1.1875   12.1012 O   0  0
   -0.4626    0.9648   13.5629 N   0  0
   -4.4707    5.0719    1.8162 H   0  0
   -5.5491    3.6611    1.9103 H   0  0
   -6.1935    5.2305    1.2523 H   0  0
   -3.5824    3.2971    2.2015 H   0  0
   -2.2652    4.2155   -3.1095 H   0  0
   -3.4575    5.1858   -2.2154 H   0  0
   -3.8604    4.6067   -3.8928 H   0  0
   -3.2623    0.4531   -2.9372 H   0  0
   -2.0088   -0.4510   -2.0577 H   0  0
   -1.7234    0.0016   -3.7970 H   0  0
   -0.2105    2.0288    4.8748 H   0  0
   -1.3005    0.6041    4.9684 H   0  0
    0.1493    0.7274    6.7571 H   0  0
    0.9843    0.2647    9.0310 H   0  0
   -2.1290    2.7486   10.6944 H   0  0
   -2.9629    3.2363    8.4255 H   0  0
    0.9499    1.0669   11.4384 H   0  0
    0.5511    0.9088   13.7365 H   0  0
   -1.1241    0.9011   14.3498 H   0  0
  1  2  1  0
  2  3  1  0
  3  8  2  0
  3  4  1  0
  4  5  2  0
  5  6  1  0
  5 16  1  0
  6  7  2  0
  6 13  1  0
  7  8  1  0
  7 11  1  0
  8  9  1  0
  9 10  1  0
 11 12  1  0
 13 14  2  0
 13 15  2  0
 16 17  2  0
 16 18  1  0
 18 19  1  0
 19 20  1  0
 20 21  2  0
 20 22  1  0
 22 27  2  0
 22 23  1  0
 23 24  2  0
 24 25  1  0
 25 26  2  0
 25 28  1  0
 26 27  1  0
 28 29  1  0
 29 30  2  0
 29 31  1  0
  1 32  1  0
  1 33  1  0
  1 34  1  0
  4 35  1  0
 10 36  1  0
 10 37  1  0
 10 38  1  0
 12 39  1  0
 12 40  1  0
 12 41  1  0
 19 42  1  0
 19 43  1  0
 23 44  1  0
 24 45  1  0
 26 46  1  0
 27 47  1  0
 28 48  1  0
 31 49  1  0
 31 50  1  0
M  END
> <Name>
ZINC26721842

> <reference>
BDB50085459

> <quality>
0.875

> <status>
decoy

$$$$
ZINC32094337
  SciTegic06061311263D

 45 46  0  0  0  0            999 V2000
    9.7022   -6.1722    3.8073 C   0  0
    9.1251   -4.7562    3.7538 C   0  0  1  0  0  0
    9.1025   -4.1611    5.1632 C   0  0
    9.9584   -3.9217    2.8847 N   0  0
    9.5524   -3.7218    1.2917 S   0  0
    9.3016   -5.0197    0.7706 O   0  0
   10.5250   -2.8505    0.7310 O   0  0
    8.0178   -2.8570    1.2498 C   0  0
    6.8181   -3.5568    1.2517 C   0  0
    5.6358   -2.8398    1.2234 C   0  0
    5.6881   -1.4500    1.1825 C   0  0
    6.8522   -0.8194    1.1819 N   0  0
    7.9957   -1.4775    1.2144 C   0  0
    4.5076   -0.7170    1.1476 N   0  0
    4.5530    0.6828    1.1120 N   0  0
    3.7857    1.5056   -0.1031 S   0  0
    4.2685    0.9668   -1.3262 O   0  0
    3.8882    2.8869    0.2140 O   0  0
    2.0750    1.0935   -0.0118 C   0  0
    1.4475    0.4123   -1.0240 C   0  0
    0.1256    0.1182   -0.9064 C   0  0
   -0.2936    0.7886    0.6364 S   0  0
    1.3036    1.4441    1.0864 C   0  0
    1.6973    2.1639    2.2988 C   0  0
    2.8652    2.4483    2.4850 O   0  0
    0.7650    2.5117    3.2096 O   0  0
    1.2275    3.2236    4.3875 C   0  0
    9.0770   -6.7997    4.4595 H   0  0
   10.7268   -6.1369    4.2061 H   0  0
    9.7187   -6.6007    2.7943 H   0  0
    8.1007   -4.7926    3.3547 H   0  0
   10.1265   -4.1240    5.5632 H   0  0
    8.4767   -4.7868    5.8166 H   0  0
    8.6877   -3.1430    5.1255 H   0  0
   10.7968   -3.4593    3.2644 H   0  0
    6.8085   -4.6565    1.2752 H   0  0
    4.6673   -3.3612    1.2331 H   0  0
    8.9435   -0.9193    1.2133 H   0  0
    3.5995   -1.2030    1.1479 H   0  0
    5.0637    1.2002    1.8417 H   0  0
    2.0076    0.1077   -1.9203 H   0  0
   -0.5214   -0.4158   -1.6179 H   0  0
    1.7377    4.1273    4.0229 H   0  0
    1.9810    2.5787    4.8633 H   0  0
    0.4104    3.4715    5.0809 H   0  0
  1  2  1  0
  2  3  1  0
  2  4  1  0
  4  5  1  0
  5  6  2  0
  5  7  2  0
  5  8  1  0
  8 13  2  0
  8  9  1  0
  9 10  2  0
 10 11  1  0
 11 12  2  0
 11 14  1  0
 12 13  1  0
 14 15  1  0
 15 16  1  0
 16 17  2  0
 16 18  2  0
 16 19  1  0
 19 23  2  0
 19 20  1  0
 20 21  2  0
 21 22  1  0
 22 23  1  0
 23 24  1  0
 24 25  2  0
 24 26  1  0
 26 27  1  0
  1 28  1  0
  1 29  1  0
  1 30  1  0
  2 31  1  0
  3 32  1  0
  3 33  1  0
  3 34  1  0
  4 35  1  0
  9 36  1  0
 10 37  1  0
 13 38  1  0
 14 39  1  0
 15 40  1  0
 20 41  1  0
 21 42  1  0
 27 43  1  0
 27 44  1  0
 27 45  1  0
M  END
> <Name>
ZINC32094337

> <reference>
BDB50085459

> <quality>
0.869

> <status>
decoy

$$$$
ZINC19012103
  SciTegic06061311263D

 55 56  0  0  0  0            999 V2000
   12.9475   10.2747    6.6832 C   0  0
   12.1450    9.4802    7.7155 C   0  0
   11.0188    8.8371    7.0624 O   0  0
   10.2053    8.0927    7.8377 C   0  0
   10.4311    7.9841    9.0271 O   0  0
    9.0444    7.4117    7.2443 C   0  0
    7.7844    7.9041    7.1084 C   0  0
    7.0108    6.9838    6.5197 O   0  0
    7.7012    5.8688    6.2450 C   0  0
    9.0032    6.0447    6.6751 C   0  0
   10.1074    5.0848    6.5849 C   0  0
   10.8260    5.0744    5.6025 O   0  0
   10.3270    4.2138    7.5897 N   0  0
    7.1961    4.7336    5.6398 N   0  0
    5.9007    4.6863    5.2707 C   0  0
    5.1784    5.6399    5.4696 O   0  0
    5.3499    3.4485    4.6109 C   0  0
    3.9649    3.6416    4.3169 O   0  0
    3.3170    2.6194    3.7199 C   0  0
    3.9133    1.5921    3.4565 O   0  0
    1.9432    2.7424    3.4000 C   0  0
    1.2943    1.7186    2.8020 C   0  0
   -0.1312    1.8462    2.4700 C   0  0
   -1.1617    2.2732    3.3400 C   0  0
   -2.2844    2.2529    2.6765 N   0  0
   -2.0324    1.8242    1.3686 N   0  0
   -0.7181    1.5718    1.2479 C   0  0
   -0.0127    1.0858    0.0080 C   0  0
   -3.0335    1.6732    0.3097 C   0  0
   -0.9920    2.6799    4.7811 C   0  0
    7.3299    9.2710    7.5512 C   0  0
   12.3031   11.0405    6.2267 H   0  0
   13.3172    9.5943    5.9020 H   0  0
   13.8009   10.7622    7.1773 H   0  0
   12.7900    8.7145    8.1713 H   0  0
   11.7752   10.1606    8.4968 H   0  0
    9.7189    4.2226    8.4210 H   0  0
   11.1029    3.5393    7.5263 H   0  0
    7.8096    3.9237    5.4708 H   0  0
    5.8989    3.2552    3.6775 H   0  0
    5.4639    2.5891    5.2880 H   0  0
    1.4040    3.6712    3.6381 H   0  0
    1.8335    0.7898    2.5639 H   0  0
    0.5060    0.1856    0.3693 H   0  0
    0.7708    1.8453   -0.1305 H   0  0
   -0.6382    0.9178   -0.8811 H   0  0
   -3.5036    2.6673    0.2827 H   0  0
   -3.7739    1.0060    0.7751 H   0  0
   -2.6701    1.3242   -0.6681 H   0  0
   -0.2224    3.4632    4.7166 H   0  0
   -0.4882    1.8041    5.2161 H   0  0
   -1.9018    2.9872    5.3176 H   0  0
    8.0353    9.9417    7.0388 H   0  0
    7.6107    9.2900    8.6146 H   0  0
    6.2728    9.5123    7.3661 H   0  0
  1  2  1  0
  2  3  1  0
  3  4  1  0
  4  5  2  0
  4  6  1  0
  6 10  1  0
  6  7  2  0
  7  8  1  0
  7 31  1  0
  8  9  1  0
  9 10  2  0
  9 14  1  0
 10 11  1  0
 11 12  2  0
 11 13  1  0
 14 15  1  0
 15 16  2  0
 15 17  1  0
 17 18  1  0
 18 19  1  0
 19 20  2  0
 19 21  1  0
 21 22  2  0
 22 23  1  0
 23 27  2  0
 23 24  1  0
 24 25  2  0
 24 30  1  0
 25 26  1  0
 26 27  1  0
 26 29  1  0
 27 28  1  0
  1 32  1  0
  1 33  1  0
  1 34  1  0
  2 35  1  0
  2 36  1  0
 13 37  1  0
 13 38  1  0
 14 39  1  0
 17 40  1  0
 17 41  1  0
 21 42  1  0
 22 43  1  0
 28 44  1  0
 28 45  1  0
 28 46  1  0
 29 47  1  0
 29 48  1  0
 29 49  1  0
 30 50  1  0
 30 51  1  0
 30 52  1  0
 31 53  1  0
 31 54  1  0
 31 55  1  0
M  END
> <Name>
ZINC19012103

> <reference>
BDB50085459

> <quality>
0.845

> <status>
decoy

$$$$
ZINC09762292
  SciTegic06061311263D

 53 54  0  0  0  0            999 V2000
   -3.5614   -4.5201    1.1870 C   0  0
   -2.9008   -5.1772    0.0026 C   0  0
   -2.5308   -4.4697   -0.9980 N   0  0
   -2.7402   -3.0844   -0.9920 N   0  0
   -2.3506   -2.3394   -2.0454 C   0  0
   -1.8188   -2.8684   -2.9988 O   0  0
   -2.5757   -0.8493   -2.0389 C   0  0
   -2.0811   -0.2876   -3.2562 O   0  0
   -2.2076    1.0565   -3.4115 C   0  0
   -2.8012    1.8181   -2.4146 C   0  0
   -2.9248    3.1854   -2.5694 C   0  0
   -2.4683    3.7967   -3.7218 C   0  0
   -1.8793    3.0389   -4.7238 C   0  0
   -1.7490    1.6674   -4.5682 C   0  0
   -1.4311    3.6406   -5.8570 O   0  0
   -1.5983    5.0567   -5.9492 C   0  0
   -2.6757   -6.6673   -0.0039 C   0  0
   -3.1973   -7.2597    1.2798 C   0  0
   -3.7022   -6.5425    2.1176 O   0  0
   -3.1028   -8.5865    1.4970 N   0  0
   -3.4803   -9.1223    2.7354 C   0  0
   -3.4453   -8.3295    3.8750 C   0  0
   -3.8178   -8.8580    5.0949 C   0  0
   -4.2271  -10.1808    5.1823 C   0  0
   -4.2627  -10.9731    4.0444 C   0  0
   -3.8949  -10.4443    2.8227 C   0  0
   -3.9383  -11.2883    1.6075 N   0  0
   -4.3865  -12.4193    1.6673 O   0  0
   -3.5257  -10.8519    0.5479 O   0  0
   -4.5938  -10.7006    6.3840 O   0  0
   -4.5334   -9.8280    7.5140 C   0  0
   -2.9414   -4.8068    2.0492 H   0  0
   -4.5231   -5.0425    1.2977 H   0  0
   -3.6792   -3.4305    1.0932 H   0  0
   -2.0792   -4.9188   -1.8075 H   0  0
   -3.1919   -2.6353   -0.1825 H   0  0
   -3.6522   -0.6413   -1.9505 H   0  0
   -2.0444   -0.4008   -1.1865 H   0  0
   -3.1736    1.3327   -1.5004 H   0  0
   -3.3873    3.7885   -1.7742 H   0  0
   -2.5720    4.8849   -3.8447 H   0  0
   -1.2824    1.0649   -5.3615 H   0  0
   -1.0829    5.4864   -5.0775 H   0  0
   -2.6751    5.2492   -5.8332 H   0  0
   -1.2122    5.4702   -6.8926 H   0  0
   -2.2037   -7.2347   -0.8195 H   0  0
   -2.7531   -9.2066    0.7526 H   0  0
   -3.1209   -7.2807    3.8058 H   0  0
   -3.7901   -8.2302    5.9977 H   0  0
   -4.5839  -12.0228    4.1150 H   0  0
   -5.1761   -8.9678    7.2751 H   0  0
   -3.4956   -9.4680    7.5716 H   0  0
   -4.8443  -10.3191    8.4479 H   0  0
  1  2  1  0
  2 17  2  0
  2  3  1  0
  3  4  1  0
  4  5  1  0
  5  6  2  0
  5  7  1  0
  7  8  1  0
  8  9  1  0
  9 14  2  0
  9 10  1  0
 10 11  2  0
 11 12  1  0
 12 13  2  0
 13 14  1  0
 13 15  1  0
 15 16  1  0
 17 18  1  0
 18 19  2  0
 18 20  1  0
 20 21  1  0
 21 26  2  0
 21 22  1  0
 22 23  2  0
 23 24  1  0
 24 25  2  0
 24 30  1  0
 25 26  1  0
 26 27  1  0
 27 28  2  0
 27 29  2  0
 30 31  1  0
  1 32  1  0
  1 33  1  0
  1 34  1  0
  3 35  1  0
  4 36  1  0
  7 37  1  0
  7 38  1  0
 10 39  1  0
 11 40  1  0
 12 41  1  0
 14 42  1  0
 16 43  1  0
 16 44  1  0
 16 45  1  0
 17 46  1  0
 20 47  1  0
 22 48  1  0
 23 49  1  0
 25 50  1  0
 31 51  1  0
 31 52  1  0
 31 53  1  0
M  END
> <Name>
ZINC09762292

> <reference>
BDB50085459

> <quality>
0.841

> <status>
decoy

$$$$
ZINC10081092
  SciTegic06061311263D

 58 59  0  0  1  0            999 V2000
   -1.3811    8.2505   -3.0185 C   0  0
   -2.1037    7.6472   -4.1954 C   0  0
   -2.2586    8.3753   -5.3588 C   0  0
   -2.9214    7.8225   -6.4391 C   0  0
   -3.4314    6.5393   -6.3589 C   0  0
   -3.2759    5.8041   -5.2005 C   0  0
   -2.6150    6.3584   -4.1112 C   0  0
   -2.4602    5.6190   -2.9358 N   0  0
   -3.3194    4.6210   -2.6493 C   0  0
   -4.2827    4.4263   -3.3616 O   0  0
   -3.0896    3.7584   -1.4519 C   0  0
   -2.1265    3.9530   -0.7397 O   0  0
   -3.9519    2.7639   -1.1623 N   0  0
   -3.7266    1.9178    0.0122 C   0  0
   -4.7703    0.7995    0.0431 C   0  0  2  0  0  0
   -6.1397    1.3958    0.2436 C   0  0
   -6.5510    1.7685    1.5098 C   0  0
   -7.8059    2.3168    1.6989 C   0  0
   -8.6547    2.4936    0.6180 C   0  0
   -8.2408    2.1181   -0.6564 C   0  0
   -6.9796    1.5743   -0.8398 C   0  0
   -9.0703    2.2896   -1.7204 O   0  0
   -8.5788    1.8814   -2.9986 C   0  0
   -9.8896    3.0324    0.8023 O   0  0
  -10.2470    3.3939    2.1378 C   0  0
   -5.3894   -1.2659    1.1446 C   0  0
   -3.0717   -0.5672    1.0964 C   0  0
   -4.1394    5.9514   -7.5182 N   0  0
   -4.2725    6.5975   -8.5421 O   0  0
   -4.5888    4.8215   -7.4483 O   0  0
   -4.4738   -0.1059    1.1731 N   0  3
   -0.5656    7.5474   -2.7936 H   0  0
   -2.0969    8.1947   -2.1851 H   0  0
   -1.0186    9.2740   -3.1948 H   0  0
   -1.8542    9.3961   -5.4260 H   0  0
   -3.0434    8.4046   -7.3645 H   0  0
   -3.6748    4.7808   -5.1401 H   0  0
   -1.6894    5.8367   -2.2882 H   0  0
   -4.7693    2.5988   -1.7668 H   0  0
   -2.7199    1.4777   -0.0405 H   0  0
   -3.8139    2.5251    0.9252 H   0  0
   -4.7423    0.2436   -0.9057 H   0  0
   -5.8782    1.6284    2.3687 H   0  0
   -8.1306    2.6127    2.7074 H   0  0
   -6.6467    1.2846   -1.8474 H   0  0
   -8.3187    0.8167   -2.9043 H   0  0
   -7.6476    2.4426   -3.1655 H   0  0
   -9.3046    2.0511   -3.8076 H   0  0
   -9.4816    4.1055    2.4809 H   0  0
  -10.1522    2.4793    2.7416 H   0  0
  -11.2580    3.8219    2.2067 H   0  0
   -5.2595   -1.8084    0.1966 H   0  0
   -6.4279   -0.9114    1.2218 H   0  0
   -5.1653   -1.9368    1.9870 H   0  0
   -2.3999    0.3028    1.1380 H   0  0
   -2.9163   -1.1020    0.1478 H   0  0
   -2.8555   -1.2405    1.9390 H   0  0
   -4.6097    0.4061    2.0565 H   0  0
  1  2  1  0
  2  7  2  0
  2  3  1  0
  3  4  2  0
  4  5  1  0
  5  6  2  0
  5 28  1  0
  6  7  1  0
  7  8  1  0
  8  9  1  0
  9 10  2  0
  9 11  1  0
 11 12  2  0
 11 13  1  0
 13 14  1  0
 14 15  1  0
 15 16  1  0
 15 31  1  0
 16 21  2  0
 16 17  1  0
 17 18  2  0
 18 19  1  0
 19 20  2  0
 19 24  1  0
 20 21  1  0
 20 22  1  0
 22 23  1  0
 24 25  1  0
 26 31  1  0
 27 31  1  0
 28 29  2  0
 28 30  2  0
  1 32  1  0
  1 33  1  0
  1 34  1  0
  3 35  1  0
  4 36  1  0
  6 37  1  0
  8 38  1  0
 13 39  1  0
 14 40  1  0
 14 41  1  0
 15 42  1  0
 17 43  1  0
 18 44  1  0
 21 45  1  0
 23 46  1  0
 23 47  1  0
 23 48  1  0
 25 49  1  0
 25 50  1  0
 25 51  1  0
 26 52  1  0
 26 53  1  0
 26 54  1  0
 27 55  1  0
 27 56  1  0
 27 57  1  0
 31 58  1  0
M  CHG  1  31   1
M  END
> <Name>
ZINC10081092

> <reference>
BDB50085459

> <quality>
0.838

> <status>
decoy

$$$$
ZINC10501757
  SciTegic06061311263D

 57 59  0  0  1  0            999 V2000
    6.8200   -5.7124    4.7548 C   0  0
    5.4485   -5.5337    4.1005 C   0  0
    5.6304   -5.1872    2.6214 C   0  0
    4.3172   -5.0161    1.9949 N   0  0
    3.7242   -3.7741    1.9770 C   0  0
    2.4974   -3.6248    1.3893 C   0  0
    1.8711   -4.7495    0.8228 C   0  0
    0.7752   -4.6423    0.2982 O   0  0
    2.4916   -5.9451    0.8584 N   0  0
    3.6974   -6.0741    1.4406 C   0  0
    4.2362   -7.1641    1.4661 O   0  0
    1.8662   -2.3597    1.3572 N   0  0
    0.5719   -2.3994    2.0510 C   0  0
    0.8002   -2.6546    3.5422 C   0  0
    1.5013   -1.5479    4.1130 O   0  0
    1.7666   -1.6862    5.5103 C   0  0
    1.7088   -1.8847   -0.0239 C   0  0
    1.2639   -0.4449   -0.0124 C   0  0
    2.0410    0.6093   -0.0142 N   0  0
    1.2079    1.6747   -0.0005 C   0  0
   -0.0144    1.2087    0.0087 N   0  0
    0.0021   -0.0041    0.0020 O   0  0
    1.6056    3.1033    0.0034 C   0  0
    2.9540    3.4545   -0.0024 C   0  0
    3.3188    4.7851   -0.0041 C   0  0
    2.3501    5.7737    0.0105 C   0  0
    1.0104    5.4370    0.0221 C   0  0
    0.6294    4.1041    0.0186 C   0  0
   -0.6872    3.7716    0.0295 O   0  0
   -1.6279    4.8473    0.0448 C   0  0
    4.3590   -2.6929    2.5442 N   0  0
    7.3944   -4.7785    4.6657 H   0  0
    7.3638   -6.5260    4.2526 H   0  0
    6.6900   -5.9616    5.8183 H   0  0
    4.8749   -6.4681    4.1898 H   0  0
    4.9046   -4.7201    4.6027 H   0  0
    6.2036   -4.2527    2.5314 H   0  0
    6.1732   -6.0003    2.1172 H   0  0
    2.0384   -6.7679    0.4359 H   0  0
   -0.0455   -3.2075    1.6318 H   0  0
    0.0553   -1.4372    1.9191 H   0  0
   -0.1700   -2.7730    4.0468 H   0  0
    1.3951   -3.5708    3.6717 H   0  0
    2.3552   -2.6054    5.6467 H   0  0
    0.8003   -1.8130    6.0203 H   0  0
    2.3065   -0.8140    5.9075 H   0  0
    2.6704   -1.9666   -0.5518 H   0  0
    0.9542   -2.4967   -0.5396 H   0  0
    3.7268    2.6717   -0.0056 H   0  0
    4.3835    5.0613   -0.0171 H   0  0
    2.6485    6.8325    0.0129 H   0  0
    0.2453    6.2272    0.0341 H   0  0
   -1.4119    5.4598   -0.8430 H   0  0
   -1.3946    5.4496    0.9352 H   0  0
   -2.6715    4.4997    0.0530 H   0  0
    5.2824   -2.8149    2.9840 H   0  0
    3.9130   -1.7646    2.5294 H   0  0
  1  2  1  0
  2  3  1  0
  3  4  1  0
  4 10  1  0
  4  5  1  0
  5  6  2  0
  5 31  1  0
  6  7  1  0
  6 12  1  0
  7  8  2  0
  7  9  1  0
  9 10  1  0
 10 11  2  0
 12 13  1  0
 12 17  1  0
 13 14  1  0
 14 15  1  0
 15 16  1  0
 17 18  1  0
 18 22  1  0
 18 19  2  0
 19 20  1  0
 20 21  2  0
 20 23  1  0
 21 22  1  0
 23 28  2  0
 23 24  1  0
 24 25  2  0
 25 26  1  0
 26 27  2  0
 27 28  1  0
 28 29  1  0
 29 30  1  0
  1 32  1  0
  1 33  1  0
  1 34  1  0
  2 35  1  0
  2 36  1  0
  3 37  1  0
  3 38  1  0
  9 39  1  0
 13 40  1  0
 13 41  1  0
 14 42  1  0
 14 43  1  0
 16 44  1  0
 16 45  1  0
 16 46  1  0
 17 47  1  0
 17 48  1  0
 24 49  1  0
 25 50  1  0
 26 51  1  0
 27 52  1  0
 30 53  1  0
 30 54  1  0
 30 55  1  0
 31 56  1  0
 31 57  1  0
M  END
> <Name>
ZINC10501757

> <reference>
BDB50085459

> <quality>
0.820

> <status>
decoy

$$$$
ZINC30735869
  SciTegic06061311263D

 50 51  0  0  0  0            999 V2000
   -5.0902   10.8632   10.9818 C   0  0
   -4.7625   10.7309    9.4931 C   0  0
   -4.7303    9.3260    9.1277 O   0  0
   -4.4532    9.0345    7.8410 C   0  0
   -4.2444    9.9303    7.0462 O   0  0
   -4.4037    7.6332    7.3989 C   0  0
   -4.7624    6.6016    8.2724 C   0  0
   -4.7038    5.2883    7.8051 C   0  0
   -4.2783    5.0490    6.4818 C   0  0
   -3.9465    6.0528    5.6841 N   0  0
   -3.9937    7.3117    6.0895 C   0  0
   -3.6378    8.3210    5.2200 N   0  0
   -4.1942    3.3950    5.8803 S   0  0
   -3.6172    3.7032    4.1926 C   0  0
   -3.4681    2.3918    3.4653 C   0  0
   -3.7255    1.3551    4.0300 O   0  0
   -3.0493    2.3754    2.1901 O   0  0
   -2.9289    1.0765    1.5525 C   0  0
   -2.4424    1.2580    0.1133 C   0  0
   -1.0865    1.8125    0.1223 N   0  0
   -0.8077    3.1311    0.1185 C   0  0
   -1.6015    4.0473    0.1070 O   0  0
    0.7049    3.2301    0.1241 C   0  0  2  0  0  0
    1.1439    1.8240    0.1375 N   0  5
    0.0281    1.0725    0.1389 C   0  0
    0.0320   -0.1428    0.1489 O   0  0
    1.1920    3.9581    1.3786 C   0  0
    1.2027    3.9375   -1.1379 C   0  0
   -5.0660    4.1974    8.6592 C   0  0
   -5.3533    3.3320    9.3367 N   0  0
   -4.3201   10.3483   11.5750 H   0  0
   -6.0719   10.4099   11.1839 H   0  0
   -5.1148   11.9273   11.2593 H   0  0
   -5.5332   11.2457    8.9007 H   0  0
   -3.7809   11.1842    9.2909 H   0  0
   -5.0826    6.8201    9.3018 H   0  0
   -3.6709    9.3045    5.5241 H   0  0
   -3.3377    8.0894    4.2623 H   0  0
   -2.6449    4.2166    4.2244 H   0  0
   -4.3478    4.3337    3.6646 H   0  0
   -3.9090    0.5771    1.5472 H   0  0
   -2.2065    0.4606    2.1082 H   0  0
   -3.1157    1.9464   -0.4185 H   0  0
   -2.4361    0.2837   -0.3974 H   0  0
    0.8572    3.4037    2.2677 H   0  0
    0.7579    4.9687    1.3981 H   0  0
    2.2900    4.0244    1.3727 H   0  0
    0.7689    4.9476   -1.1776 H   0  0
    0.8754    3.3686   -2.0206 H   0  0
    2.3006    4.0040   -1.1238 H   0  0
  1  2  1  0
  2  3  1  0
  3  4  1  0
  4  5  2  0
  4  6  1  0
  6 11  2  0
  6  7  1  0
  7  8  2  0
  8  9  1  0
  8 29  1  0
  9 10  2  0
  9 13  1  0
 10 11  1  0
 11 12  1  0
 13 14  1  0
 14 15  1  0
 15 16  2  0
 15 17  1  0
 17 18  1  0
 18 19  1  0
 19 20  1  0
 20 25  1  0
 20 21  1  0
 21 22  2  0
 21 23  1  0
 23 24  1  0
 23 27  1  0
 23 28  1  0
 24 25  1  0
 25 26  2  0
 29 30  3  0
  1 31  1  0
  1 32  1  0
  1 33  1  0
  2 34  1  0
  2 35  1  0
  7 36  1  0
 12 37  1  0
 12 38  1  0
 14 39  1  0
 14 40  1  0
 18 41  1  0
 18 42  1  0
 19 43  1  0
 19 44  1  0
 27 45  1  0
 27 46  1  0
 27 47  1  0
 28 48  1  0
 28 49  1  0
 28 50  1  0
M  CHG  1  24  -1
M  END
> <Name>
ZINC30735869

> <reference>
BDB50085459

> <quality>
0.818

> <status>
decoy

$$$$
ZINC25124825
  SciTegic06061311263D

 50 52  0  0  0  0            999 V2000
    3.6163   14.1317    2.1215 C   0  0
    3.6681   12.7777    1.4620 C   0  0
    2.6845   12.0671    1.4572 O   0  0
    4.9056   12.3194    0.8268 C   0  0
    6.0762   13.0845    0.9303 C   0  0
    7.2363   12.6531    0.3250 C   0  0
    7.2522   11.4491   -0.3867 C   0  0
    6.1012   10.6835   -0.4880 C   0  0
    4.9277   11.1062    0.1151 C   0  0
    3.7720   10.3353    0.0122 N   0  0
    3.8577    8.9903    0.0041 C   0  0
    4.9445    8.4519    0.0039 O   0  0
    2.6032    8.1553   -0.0045 C   0  0
    2.9587    6.7476   -0.0121 O   0  0
    1.9484    5.8639   -0.0203 C   0  0
    0.8048    6.2538   -0.0211 O   0  0
    2.2405    4.3855   -0.0286 C   0  0
    0.9241    3.6056   -0.0370 C   0  0
    1.2207    2.1047   -0.0454 C   0  0
   -0.0397    1.3580   -0.0535 N   0  0
   -0.0245    0.0103   -0.0617 C   0  0
    1.0356   -0.5860   -0.0624 O   0  0
   -1.2909   -0.7399   -0.0698 C   0  0
   -1.3118   -2.1811   -0.0843 C   0  0
   -2.5204   -2.7767   -0.0862 C   0  0
   -3.6493   -1.3991   -0.0813 S   0  0
   -2.5102   -0.0949   -0.0697 C   0  0
    8.5077   11.2544   -0.8813 O   0  0
    9.3610   12.1343   -0.1265 C   0  0
    8.4850   13.2053    0.2715 O   0  0
    3.3117   13.9403    3.1610 H   0  0
    2.7935   14.6680    1.6262 H   0  0
    4.5677   14.6805    2.0604 H   0  0
    6.0683   14.0287    1.4945 H   0  0
    6.1195    9.7374   -1.0489 H   0  0
    2.8520   10.7932   -0.0577 H   0  0
    2.0083    8.3778    0.8936 H   0  0
    2.0124    8.3884   -0.9027 H   0  0
    2.8222    4.1316   -0.9270 H   0  0
    2.8176    4.1196    0.8693 H   0  0
    0.3420    3.8588    0.8614 H   0  0
    0.3460    3.8694   -0.9349 H   0  0
    1.8025    1.8508   -0.9438 H   0  0
    1.7978    1.8388    0.8525 H   0  0
   -0.9374    1.8629   -0.0529 H   0  0
   -0.3820   -2.7688   -0.0934 H   0  0
   -2.7532   -3.8518   -0.0899 H   0  0
   -2.7106    0.9867   -0.0637 H   0  0
   10.1687   12.5221   -0.7647 H   0  0
    9.7531   11.6152    0.7605 H   0  0
  1  2  1  0
  2  3  2  0
  2  4  1  0
  4  9  2  0
  4  5  1  0
  5  6  2  0
  6 30  1  0
  6  7  1  0
  7  8  2  0
  7 28  1  0
  8  9  1  0
  9 10  1  0
 10 11  1  0
 11 12  2  0
 11 13  1  0
 13 14  1  0
 14 15  1  0
 15 16  2  0
 15 17  1  0
 17 18  1  0
 18 19  1  0
 19 20  1  0
 20 21  1  0
 21 22  2  0
 21 23  1  0
 23 27  2  0
 23 24  1  0
 24 25  2  0
 25 26  1  0
 26 27  1  0
 28 29  1  0
 29 30  1  0
  1 31  1  0
  1 32  1  0
  1 33  1  0
  5 34  1  0
  8 35  1  0
 10 36  1  0
 13 37  1  0
 13 38  1  0
 17 39  1  0
 17 40  1  0
 18 41  1  0
 18 42  1  0
 19 43  1  0
 19 44  1  0
 20 45  1  0
 24 46  1  0
 25 47  1  0
 27 48  1  0
 29 49  1  0
 29 50  1  0
M  END
> <Name>
ZINC25124825

> <reference>
BDB50085459

> <quality>
0.816

> <status>
decoy

$$$$
ZINC24307333
  SciTegic06061311263D

 51 53  0  0  0  0            999 V2000
  -10.9741    5.8264   -2.7806 C   0  0
  -10.4176    4.5301   -2.5526 O   0  0
  -10.2138    4.2196   -1.1727 C   0  0
   -9.6178    2.8159   -1.0485 C   0  0
   -9.3996    2.4834    0.4289 C   0  0
   -8.8289    1.1394    0.5479 N   0  0
   -9.5278   -0.0074    0.6622 C   0  0
  -10.7415   -0.1115    0.6843 O   0  0
   -8.6395   -1.0186    0.7530 N   0  0
   -7.3568   -0.4574    0.6847 N   0  0
   -7.4872    0.8318    0.5587 C   0  0
   -6.1661    1.9907    0.4310 S   0  0
   -4.7511    0.8661    0.5270 C   0  0
   -3.4725    1.6585    0.4358 C   0  0
   -3.5139    2.8649    0.3175 O   0  0
   -2.2831    1.0266    0.4856 N   0  0
   -1.0988    1.7494    0.3043 C   0  0
   -0.9957    3.0481    0.7875 C   0  0
    0.1709    3.7646    0.6036 C   0  0
    1.2411    3.1907   -0.0556 C   0  0
    1.1463    1.8908   -0.5366 C   0  0
   -0.0246    1.1685   -0.3538 C   0  0
    2.2294    1.3109   -1.2044 N   0  0
    2.0130    0.4365   -2.2070 C   0  0
    0.8789    0.2218   -2.5930 O   0  0
    3.1438   -0.2560   -2.8325 C   0  0
    3.0659   -1.1616   -3.8518 C   0  0
    4.3801   -1.5661   -4.1335 C   0  0
    5.1924   -0.8984   -3.2847 C   0  0
    4.4442   -0.1060   -2.5060 O   0  0
  -10.2910    6.5638   -2.3339 H   0  0
  -11.9345    5.8736   -2.2464 H   0  0
  -11.1138    6.0232   -3.8538 H   0  0
   -9.5220    4.9515   -0.7303 H   0  0
  -11.1762    4.2568   -0.6413 H   0  0
  -10.3093    2.0834   -1.4904 H   0  0
   -8.6546    2.7771   -1.5784 H   0  0
  -10.3620    2.5206    0.9603 H   0  0
   -8.7079    3.2154    0.8713 H   0  0
   -8.8627   -2.0190    0.8539 H   0  0
   -4.7959    0.1469   -0.3041 H   0  0
   -4.7781    0.3235    1.4835 H   0  0
   -2.2459    0.0117    0.6571 H   0  0
   -1.8441    3.5062    1.3171 H   0  0
    0.2481    4.7943    0.9828 H   0  0
    2.1690    3.7636   -0.1997 H   0  0
   -0.1007    0.1376   -0.7299 H   0  0
    3.1925    1.5520   -0.9301 H   0  0
    2.1506   -1.5071   -4.3546 H   0  0
    4.6905   -2.2905   -4.9009 H   0  0
    6.2877   -0.9905   -3.2405 H   0  0
  1  2  1  0
  2  3  1  0
  3  4  1  0
  4  5  1  0
  5  6  1  0
  6 11  1  0
  6  7  1  0
  7  8  2  0
  7  9  1  0
  9 10  1  0
 10 11  2  0
 11 12  1  0
 12 13  1  0
 13 14  1  0
 14 15  2  0
 14 16  1  0
 16 17  1  0
 17 22  2  0
 17 18  1  0
 18 19  2  0
 19 20  1  0
 20 21  2  0
 21 22  1  0
 21 23  1  0
 23 24  1  0
 24 25  2  0
 24 26  1  0
 26 30  1  0
 26 27  2  0
 27 28  1  0
 28 29  2  0
 29 30  1  0
  1 31  1  0
  1 32  1  0
  1 33  1  0
  3 34  1  0
  3 35  1  0
  4 36  1  0
  4 37  1  0
  5 38  1  0
  5 39  1  0
  9 40  1  0
 13 41  1  0
 13 42  1  0
 16 43  1  0
 18 44  1  0
 19 45  1  0
 20 46  1  0
 22 47  1  0
 23 48  1  0
 27 49  1  0
 28 50  1  0
 29 51  1  0
M  END
> <Name>
ZINC24307333

> <reference>
BDB50085459

> <quality>
0.816

> <status>
decoy

$$$$
ZINC11291442
  SciTegic06061311263D

 58 60  0  0  0  0            999 V2000
   -3.1743   -3.2767   -5.1450 C   0  0
   -3.4398   -3.2878   -3.6382 C   0  0
   -2.1078   -3.2730   -2.8856 C   0  0
   -2.3733   -3.2841   -1.3788 C   0  0
   -1.0978   -3.2699   -0.6582 N   0  0
   -0.5124   -2.0628   -0.3120 C   0  0
    0.6970   -2.0759    0.3715 C   0  0
    1.2925   -3.3148    0.6922 C   0  0
    2.3522   -3.3524    1.2913 O   0  0
    0.6737   -4.4571    0.3276 N   0  0
   -0.4961   -4.4299   -0.3339 C   0  0
   -1.0244   -5.4794   -0.6471 O   0  0
    1.0399   -0.7542    0.5752 N   0  0
    0.0581   -0.0052    0.0363 C   0  0
   -0.8534   -0.7838   -0.4887 N   0  0
    0.0187    1.5012    0.0330 C   0  0
   -0.6672    1.9701    1.2238 O   0  0
   -0.7889    3.3035    1.3746 C   0  0
   -0.3345    4.0538    0.5341 O   0  0
   -1.4744    3.8526    2.5610 C   0  0
   -1.5012    5.2399    2.7819 C   0  0
   -2.1209    5.7229    3.8527 N   0  0
   -2.7074    4.9002    4.7028 C   0  0
   -2.6806    3.5299    4.4841 C   0  0
   -2.0746    3.0368    3.4235 N   0  0
   -0.8855    6.0976    1.8896 N   0  0
    2.2416   -0.2599    1.2518 C   0  0
    1.9571   -0.1035    2.7470 C   0  0
    3.2122    0.4128    3.4536 C   0  0  1  0  0  0
    3.5357    1.8221    2.9536 C   0  0
    2.9681    0.4509    4.9636 C   0  0
   -2.5878   -4.1653   -5.4216 H   0  0
   -2.6128   -2.3695   -5.4128 H   0  0
   -4.1316   -3.2873   -5.6868 H   0  0
   -4.0260   -2.3988   -3.3625 H   0  0
   -4.0014   -4.1949   -3.3704 H   0  0
   -1.5212   -4.1620   -3.1606 H   0  0
   -1.5453   -2.3658   -3.1514 H   0  0
   -2.9595   -2.3951   -1.1031 H   0  0
   -2.9348   -4.1913   -1.1110 H   0  0
    1.1042   -5.3636    0.5597 H   0  0
    1.0458    1.8950    0.0231 H   0  0
   -0.5176    1.8531   -0.8606 H   0  0
   -3.2199    5.3030    5.5889 H   0  0
   -3.1680    2.8520    5.2002 H   0  0
   -0.4060    5.7180    1.0608 H   0  0
   -0.9060    7.1144    2.0528 H   0  0
    3.0641   -0.9762    1.1086 H   0  0
    2.5267    0.7150    0.8296 H   0  0
    1.6730   -1.0778    3.1712 H   0  0
    1.1350    0.6130    2.8910 H   0  0
    4.0574   -0.2566    3.2355 H   0  0
    2.6912    2.4924    3.1715 H   0  0
    3.7116    1.7958    1.8681 H   0  0
    4.4380    2.1939    3.4612 H   0  0
    2.7357   -0.5620    5.3242 H   0  0
    2.1232    1.1204    5.1828 H   0  0
    3.8701    0.8220    5.4723 H   0  0
  1  2  1  0
  2  3  1  0
  3  4  1  0
  4  5  1  0
  5 11  1  0
  5  6  1  0
  6 15  1  0
  6  7  2  0
  7  8  1  0
  7 13  1  0
  8  9  2  0
  8 10  1  0
 10 11  1  0
 11 12  2  0
 13 14  1  0
 13 27  1  0
 14 15  2  0
 14 16  1  0
 16 17  1  0
 17 18  1  0
 18 19  2  0
 18 20  1  0
 20 25  2  0
 20 21  1  0
 21 22  2  0
 21 26  1  0
 22 23  1  0
 23 24  2  0
 24 25  1  0
 27 28  1  0
 28 29  1  0
 29 30  1  0
 29 31  1  0
  1 32  1  0
  1 33  1  0
  1 34  1  0
  2 35  1  0
  2 36  1  0
  3 37  1  0
  3 38  1  0
  4 39  1  0
  4 40  1  0
 10 41  1  0
 16 42  1  0
 16 43  1  0
 23 44  1  0
 24 45  1  0
 26 46  1  0
 26 47  1  0
 27 48  1  0
 27 49  1  0
 28 50  1  0
 28 51  1  0
 29 52  1  0
 30 53  1  0
 30 54  1  0
 30 55  1  0
 31 56  1  0
 31 57  1  0
 31 58  1  0
M  END
> <Name>
ZINC11291442

> <reference>
BDB50085459

> <quality>
0.811

> <status>
decoy

$$$$
ZINC24983737
  SciTegic06061311263D

 50 51  0  0  0  0            999 V2000
    8.9234    1.2598   -3.6897 C   0  0
    9.5956    0.9289   -2.4308 N   0  0
   10.9099    0.2821   -2.4501 C   0  0
    8.9907    1.2266   -1.2267 C   0  0
    7.7964    1.8143   -1.2081 N   0  0
    7.2163    2.0993   -0.0556 C   0  0
    7.8208    1.8069    1.0827 N   0  0
    9.0128    1.2147    1.0723 C   0  0
    9.5993    0.9265   -0.0846 N   0  0
    9.6408    0.9050    2.2613 N   0  0
    5.8644    2.7651   -0.0391 C   0  0
    4.8254    1.7508   -0.0346 O   0  0
    3.5540    2.1810   -0.0202 C   0  0
    3.3171    3.3658   -0.0115 O   0  0
    2.4220    1.1862   -0.0147 C   0  0
    1.1435    1.9014    0.0014 N   0  0
   -0.0144    1.2117    0.0087 C   0  0
    0.0021   -0.0041    0.0020 O   0  0
   -1.3026    1.9322    0.0187 C   0  0
   -1.3233    3.3291    0.0323 C   0  0
   -2.5266    4.0003    0.0367 C   0  0
   -3.7204    3.2916    0.0386 C   0  0
   -3.7070    1.8977    0.0304 C   0  0
   -2.5040    1.2187    0.0205 C   0  0
   -4.8781    1.2063    0.0318 O   0  0
   -4.7895   -0.2199    0.0226 C   0  0
   -4.9038    3.9577    0.0478 O   0  0
   -4.8445    5.3855    0.0558 C   0  0  1  0  0  0
   -4.1610    5.8175    1.1975 F   0  0
   -4.1715    5.8307   -1.0870 F   0  0
    8.8595    0.3062   -4.2342 H   0  0
    9.6401    1.8923   -4.2341 H   0  0
    7.9426    1.7425   -3.5667 H   0  0
   11.5461    0.9542   -3.0447 H   0  0
   10.7655   -0.6319   -3.0448 H   0  0
   11.3284    0.0761   -1.4539 H   0  0
    9.1867    1.1323    3.1574 H   0  0
   10.5632    0.4467    2.2528 H   0  0
    5.7728    3.3871    0.8636 H   0  0
    5.7548    3.3972   -0.9326 H   0  0
    2.4798    0.5598   -0.9171 H   0  0
    2.4963    0.5494    0.8791 H   0  0
    1.1295    2.9313    0.0071 H   0  0
   -0.3789    3.8931    0.0395 H   0  0
   -2.5414    5.1002    0.0387 H   0  0
   -2.4919    0.1188    0.0140 H   0  0
   -4.1981   -0.4987    0.9072 H   0  0
   -4.2067   -0.4878   -0.8710 H   0  0
   -5.7755   -0.7075    0.0244 H   0  0
   -5.8655    5.7948    0.0629 H   0  0
  1  2  1  0
  2  3  1  0
  2  4  1  0
  4  9  2  0
  4  5  1  0
  5  6  2  0
  6  7  1  0
  6 11  1  0
  7  8  2  0
  8  9  1  0
  8 10  1  0
 11 12  1  0
 12 13  1  0
 13 14  2  0
 13 15  1  0
 15 16  1  0
 16 17  1  0
 17 18  2  0
 17 19  1  0
 19 24  2  0
 19 20  1  0
 20 21  2  0
 21 22  1  0
 22 23  2  0
 22 27  1  0
 23 24  1  0
 23 25  1  0
 25 26  1  0
 27 28  1  0
 28 29  1  0
 28 30  1  0
  1 31  1  0
  1 32  1  0
  1 33  1  0
  3 34  1  0
  3 35  1  0
  3 36  1  0
 10 37  1  0
 10 38  1  0
 11 39  1  0
 11 40  1  0
 15 41  1  0
 15 42  1  0
 16 43  1  0
 20 44  1  0
 21 45  1  0
 24 46  1  0
 26 47  1  0
 26 48  1  0
 26 49  1  0
 28 50  1  0
M  END
> <Name>
ZINC24983737

> <reference>
BDB50085459

> <quality>
0.808

> <status>
decoy

$$$$
ZINC22736400
  SciTegic06061311263D

 51 52  0  0  0  0            999 V2000
   -4.5144   15.9214    8.8550 C   0  0
   -3.8748   15.2664    7.6579 C   0  0
   -4.0051   13.9064    7.4660 C   0  0
   -3.4119   13.3014    6.3564 C   0  0
   -2.6852   14.0775    5.4511 C   0  0
   -2.5681   15.4370    5.6518 C   0  0
   -3.1586   16.0304    6.7538 C   0  0
   -3.0239   17.4890    6.9657 N   0  0
   -3.0368   18.2468    6.0122 O   0  0
   -2.9001   17.9317    8.0937 O   0  0
   -3.5472   11.8457    6.1443 C   0  0
   -4.1758   11.1724    6.9363 O   0  0
   -2.9736   11.2649    5.0727 O   0  0
   -3.1479    9.8307    4.9280 C   0  0
   -2.4423    9.3622    3.6816 C   0  0
   -1.8508   10.1586    2.9839 O   0  0
   -2.4685    8.0581    3.3422 N   0  0
   -1.7826    7.6026    2.1304 C   0  0
   -1.9634    6.1141    1.9803 C   0  0
   -3.0444    5.6166    1.2768 C   0  0
   -3.2098    4.2512    1.1383 C   0  0
   -2.2939    3.3833    1.7029 C   0  0
   -1.2158    3.8806    2.4108 C   0  0
   -1.0481    5.2461    2.5456 C   0  0
   -2.4742    1.8947    1.5518 C   0  0
   -1.6256    1.3321    0.0505 S   0  0
   -0.2191    1.4633    0.2050 O   0  0
   -2.2787    1.8454   -1.1024 O   0  0
   -1.8942   -0.3010   -0.0035 N   0  0
   -3.2548   -0.8141   -0.1817 C   0  0
   -5.1672   16.7030    8.4391 H   0  0
   -3.6906   16.4295    9.3777 H   0  0
   -5.0583   15.2219    9.5068 H   0  0
   -4.5750   13.3002    8.1855 H   0  0
   -2.2073   13.6057    4.5799 H   0  0
   -2.0040   16.0510    4.9343 H   0  0
   -4.2199    9.5963    4.8516 H   0  0
   -2.7222    9.3192    5.8039 H   0  0
   -2.9707    7.3817    3.9348 H   0  0
   -2.2082    8.1133    1.2540 H   0  0
   -0.7101    7.8352    2.2054 H   0  0
   -3.7730    6.3073    0.8272 H   0  0
   -4.0702    3.8553    0.5788 H   0  0
   -0.4914    3.1898    2.8668 H   0  0
   -0.1862    5.6420    3.1028 H   0  0
   -3.5462    1.6598    1.4759 H   0  0
   -2.0477    1.3828    2.4270 H   0  0
   -1.1047   -0.9561    0.0882 H   0  0
   -3.6085   -0.3395   -1.1089 H   0  0
   -3.8294   -0.3610    0.6396 H   0  0
   -3.3386   -1.9106   -0.2058 H   0  0
  1  2  1  0
  2  7  2  0
  2  3  1  0
  3  4  2  0
  4  5  1  0
  4 11  1  0
  5  6  2  0
  6  7  1  0
  7  8  1  0
  8  9  2  0
  8 10  2  0
 11 12  2  0
 11 13  1  0
 13 14  1  0
 14 15  1  0
 15 16  2  0
 15 17  1  0
 17 18  1  0
 18 19  1  0
 19 24  2  0
 19 20  1  0
 20 21  2  0
 21 22  1  0
 22 23  2  0
 22 25  1  0
 23 24  1  0
 25 26  1  0
 26 27  2  0
 26 28  2  0
 26 29  1  0
 29 30  1  0
  1 31  1  0
  1 32  1  0
  1 33  1  0
  3 34  1  0
  5 35  1  0
  6 36  1  0
 14 37  1  0
 14 38  1  0
 17 39  1  0
 18 40  1  0
 18 41  1  0
 20 42  1  0
 21 43  1  0
 23 44  1  0
 24 45  1  0
 25 46  1  0
 25 47  1  0
 29 48  1  0
 30 49  1  0
 30 50  1  0
 30 51  1  0
M  END
> <Name>
ZINC22736400

> <reference>
BDB50085459

> <quality>
0.805

> <status>
decoy

$$$$
ZINC30923304
  SciTegic06061311263D

 61 62  0  0  1  0            999 V2000
   11.4358   11.9769   -5.1965 C   0  0
   10.2919   11.3688   -4.3824 C   0  0
    9.4720   12.4891   -3.7393 C   0  0
    8.3281   11.8810   -2.9252 C   0  0
    7.5430   12.9537   -2.3094 N   0  0
    6.4775   12.6529   -1.5409 C   0  0
    6.1686   11.4943   -1.3592 O   0  0
    5.6698   13.7563   -0.9074 C   0  0
    4.5432   13.1574   -0.1056 C   0  0
    3.3094   12.8704   -0.5576 N   0  0
    2.6640   12.3729    0.4698 C   0  0
    3.5173   12.3661    1.4983 O   0  0
    4.5867   12.8190    1.1483 N   0  0
    1.2352   11.8941    0.4859 C   0  0
    1.2020   10.4440    0.2529 N   0  0
    1.7699   10.1086   -1.0597 C   0  0
    0.9772   10.8231   -2.1560 C   0  0
   -0.1644    9.9208    0.3846 C   0  0
   -0.1276    8.4143    0.3843 C   0  0
    0.9326    7.8336    0.2843 O   0  0
   -1.2727    7.7122    0.4953 N   0  0
   -1.2499    6.3151    0.3974 C   0  0
   -2.3079    5.6436   -0.2012 C   0  0
   -2.2852    4.2668   -0.2981 C   0  0
   -1.2044    3.5532    0.2029 C   0  0
   -0.1490    4.2242    0.8066 C   0  0
   -0.1690    5.6014    0.8984 C   0  0
   -1.1814    2.1561    0.1045 N   0  0
   -0.0036    1.5012    0.0844 C   0  0
    1.0362    2.1245    0.0423 O   0  0
    0.0214   -0.0054    0.1078 C   0  0
   12.0833   12.5705   -4.5344 H   0  0
   11.0230   12.6259   -5.9829 H   0  0
   12.0257   11.1720   -5.6592 H   0  0
    9.6448   10.7757   -5.0453 H   0  0
   10.7046   10.7197   -3.5960 H   0  0
   10.1185   13.0824   -3.0759 H   0  0
    9.0575   13.1386   -4.5243 H   0  0
    7.6810   11.2879   -3.5881 H   0  0
    8.7409   11.2319   -2.1389 H   0  0
    7.8053   13.9377   -2.4638 H   0  0
    5.2552   14.4059   -1.6924 H   0  0
    6.3162   14.3496   -0.2440 H   0  0
    0.7843   12.1182    1.4639 H   0  0
    0.6672   12.4050   -0.3055 H   0  0
    2.8207   10.4316   -1.0981 H   0  0
    1.7144    9.0214   -1.2175 H   0  0
    1.0326   11.9106   -2.0004 H   0  0
   -0.0740   10.5011   -2.1189 H   0  0
    1.4020   10.5724   -3.1392 H   0  0
   -0.7757   10.2721   -0.4597 H   0  0
   -0.6039   10.2761    1.3283 H   0  0
   -2.1646    8.2030    0.6521 H   0  0
   -3.1640    6.2089   -0.5981 H   0  0
   -3.1233    3.7349   -0.7722 H   0  0
    0.7029    3.6583    1.2116 H   0  0
    0.6712    6.1336    1.3684 H   0  0
   -2.0646    1.6292    0.0475 H   0  0
   -0.5820   -0.3162   -0.7579 H   0  0
   -0.5360   -0.2879    1.0130 H   0  0
    1.0352   -0.4319    0.0883 H   0  0
  1  2  1  0
  2  3  1  0
  3  4  1  0
  4  5  1  0
  5  6  1  0
  6  7  2  0
  6  8  1  0
  8  9  1  0
  9 13  2  0
  9 10  1  0
 10 11  2  0
 11 12  1  0
 11 14  1  0
 12 13  1  0
 14 15  1  0
 15 16  1  0
 15 18  1  0
 16 17  1  0
 18 19  1  0
 19 20  2  0
 19 21  1  0
 21 22  1  0
 22 27  2  0
 22 23  1  0
 23 24  2  0
 24 25  1  0
 25 26  2  0
 25 28  1  0
 26 27  1  0
 28 29  1  0
 29 30  2  0
 29 31  1  0
  1 32  1  0
  1 33  1  0
  1 34  1  0
  2 35  1  0
  2 36  1  0
  3 37  1  0
  3 38  1  0
  4 39  1  0
  4 40  1  0
  5 41  1  0
  8 42  1  0
  8 43  1  0
 14 44  1  0
 14 45  1  0
 16 46  1  0
 16 47  1  0
 17 48  1  0
 17 49  1  0
 17 50  1  0
 18 51  1  0
 18 52  1  0
 21 53  1  0
 23 54  1  0
 24 55  1  0
 26 56  1  0
 27 57  1  0
 28 58  1  0
 31 59  1  0
 31 60  1  0
 31 61  1  0
M  END
> <Name>
ZINC30923304

> <reference>
BDB50085459

> <quality>
0.804

> <status>
decoy

$$$$
ZINC17632135
  SciTegic06061311263D

 51 52  0  0  0  0            999 V2000
    0.0026    1.5255   -0.0038 C   0  0
   -0.0621   -0.0022    0.0476 C   0  0
    0.7978   -0.4914    1.1281 N   0  0
    0.9019   -1.8567    1.3698 C   0  0
    0.2877   -2.7633    0.5097 C   0  0
    0.3893   -4.1150    0.7459 C   0  0
    1.1102   -4.5778    1.8508 C   0  0
    1.7256   -3.6652    2.7123 C   0  0
    1.6248   -2.3146    2.4677 C   0  0
    2.2809   -1.3477    3.3763 N   0  0
    3.3683   -1.6074    3.8597 O   0  0
    1.7334   -0.2922    3.6406 O   0  0
    1.2207   -6.0264    2.1072 C   0  0
    1.8480   -6.4276    3.0685 O   0  0
    0.6264   -6.9051    1.2759 N   0  0
    0.7313   -8.2808    1.5194 N   0  0
    0.1370   -9.1596    0.6881 C   0  0
   -0.4901   -8.7585   -0.2729 O   0  0
    0.2477  -10.6113    0.9450 C   0  0
    0.9718  -11.0753    2.0443 C   0  0
    1.0668  -12.4311    2.2814 C   0  0
    0.4555  -13.3305    1.4260 C   0  0
   -0.2590  -12.8773    0.3313 C   0  0
   -0.3666  -11.5240    0.0861 C   0  0
    0.5870  -15.0606    1.7325 S   0  0
    0.8482  -15.2083    3.1215 O   0  0
   -0.5281  -15.6714    1.0979 O   0  0
    1.9367  -15.5976    0.9374 N   0  0
    3.2625  -15.1240    1.3425 C   0  0
    4.3357  -16.0253    0.7287 C   0  0
    1.0393    1.8436   -0.1886 H   0  0
   -0.3423    1.9406    0.9547 H   0  0
   -0.6429    1.8935   -0.8149 H   0  0
   -1.0990   -0.3194    0.2328 H   0  0
    0.2827   -0.4174   -0.9109 H   0  0
    1.3253    0.1761    1.7087 H   0  0
   -0.2793   -2.3985   -0.3595 H   0  0
   -0.0961   -4.8307    0.0661 H   0  0
    2.2899   -4.0261    3.5848 H   0  0
    0.0951   -6.5653    0.4616 H   0  0
    1.2626   -8.6206    2.3337 H   0  0
    1.4656  -10.3616    2.7201 H   0  0
    1.6298  -12.7978    3.1524 H   0  0
   -0.7423  -13.5977   -0.3450 H   0  0
   -0.9353  -11.1650   -0.7844 H   0  0
    1.8441  -16.2646    0.1580 H   0  0
    3.3440  -15.1526    2.4391 H   0  0
    3.4065  -14.0917    0.9909 H   0  0
    4.2563  -15.9970   -0.3681 H   0  0
    4.1931  -17.0581    1.0795 H   0  0
    5.3315  -15.6702    1.0325 H   0  0
  1  2  1  0
  2  3  1  0
  3  4  1  0
  4  9  2  0
  4  5  1  0
  5  6  2  0
  6  7  1  0
  7  8  2  0
  7 13  1  0
  8  9  1  0
  9 10  1  0
 10 11  2  0
 10 12  2  0
 13 14  2  0
 13 15  1  0
 15 16  1  0
 16 17  1  0
 17 18  2  0
 17 19  1  0
 19 24  2  0
 19 20  1  0
 20 21  2  0
 21 22  1  0
 22 23  2  0
 22 25  1  0
 23 24  1  0
 25 26  2  0
 25 27  2  0
 25 28  1  0
 28 29  1  0
 29 30  1  0
  1 31  1  0
  1 32  1  0
  1 33  1  0
  2 34  1  0
  2 35  1  0
  3 36  1  0
  5 37  1  0
  6 38  1  0
  8 39  1  0
 15 40  1  0
 16 41  1  0
 20 42  1  0
 21 43  1  0
 23 44  1  0
 24 45  1  0
 28 46  1  0
 29 47  1  0
 29 48  1  0
 30 49  1  0
 30 50  1  0
 30 51  1  0
M  END
> <Name>
ZINC17632135

> <reference>
BDB50085459

> <quality>
0.800

> <status>
decoy

$$$$
ZINC15746095
  SciTegic06061311263D

 48 49  0  0  1  0            999 V2000
   -3.7482    3.6631   -6.8507 C   0  0
   -4.1461    4.5421   -5.3147 S   0  0
   -3.4241    3.5031   -4.0148 C   0  0
   -3.6904    4.1374   -2.6481 C   0  0
   -3.0814    3.2610   -1.5518 C   0  0  1  0  0  0
   -3.2357    3.9454   -0.2180 C   0  0
   -3.8578    3.4088    0.6680 O   0  0
   -3.7710    1.9688   -1.5202 N   0  0
   -3.1413    0.8807   -1.0345 C   0  0
   -1.9631    0.9417   -0.7375 O   0  0
   -3.8784   -0.3802   -0.8635 C   0  0
   -4.2346   -1.1077   -1.9470 C   0  0
   -3.7550   -0.7208   -3.2829 C   0  0
   -4.5563   -0.9398   -4.4082 C   0  0
   -4.1019   -0.5695   -5.6562 C   0  0
   -2.8518    0.0074   -5.7984 C   0  0
   -2.0507    0.2226   -4.6904 C   0  0
   -2.4930   -0.1373   -3.4350 C   0  0
   -2.3689    0.3959   -7.1427 N   0  0
   -1.2692    0.9034   -7.2715 O   0  0
   -3.0713    0.2080   -8.1199 O   0  0
   -4.2109   -0.8270    0.4183 N   0  0
   -3.7674   -0.1583    1.5012 C   0  0
   -3.1449    0.8785    1.3634 O   0  0
   -4.0347   -0.6798    2.8452 C   0  0
   -3.6448   -0.1053    4.0212 C   0  0
   -4.1113   -0.9373    5.0509 C   0  0
   -4.7573   -1.9700    4.4659 C   0  0
   -4.7141   -1.8083    3.1370 O   0  0
   -2.6774    5.1486   -0.0125 O   0  5
   -4.2167    2.6688   -6.8930 H   0  0
   -2.6635    3.5911   -7.0185 H   0  0
   -4.1655    4.2531   -7.6800 H   0  0
   -3.8802    2.5027   -4.0493 H   0  0
   -2.3390    3.4171   -4.1731 H   0  0
   -4.7752    4.2232   -2.4875 H   0  0
   -3.2342    5.1377   -2.6128 H   0  0
   -2.0133    3.1016   -1.7608 H   0  0
   -4.7370    1.8919   -1.8692 H   0  0
   -4.8828   -1.9885   -1.8292 H   0  0
   -5.5464   -1.4062   -4.2978 H   0  0
   -4.7345   -0.7330   -6.5411 H   0  0
   -1.0586    0.6819   -4.8117 H   0  0
   -1.8550    0.0340   -2.5554 H   0  0
   -4.7949   -1.6673    0.5354 H   0  0
   -3.0755    0.8285    4.1387 H   0  0
   -3.9764   -0.7785    6.1310 H   0  0
   -5.2393   -2.8059    4.9941 H   0  0
  1  2  1  0
  2  3  1  0
  3  4  1  0
  4  5  1  0
  5  6  1  0
  5  8  1  0
  6  7  2  0
  6 30  1  0
  8  9  1  0
  9 10  2  0
  9 11  1  0
 11 12  2  0
 11 22  1  0
 12 13  1  0
 13 18  2  0
 13 14  1  0
 14 15  2  0
 15 16  1  0
 16 17  2  0
 16 19  1  0
 17 18  1  0
 19 20  2  0
 19 21  2  0
 22 23  1  0
 23 24  2  0
 23 25  1  0
 25 29  1  0
 25 26  2  0
 26 27  1  0
 27 28  2  0
 28 29  1  0
  1 31  1  0
  1 32  1  0
  1 33  1  0
  3 34  1  0
  3 35  1  0
  4 36  1  0
  4 37  1  0
  5 38  1  0
  8 39  1  0
 12 40  1  0
 14 41  1  0
 15 42  1  0
 17 43  1  0
 18 44  1  0
 22 45  1  0
 26 46  1  0
 27 47  1  0
 28 48  1  0
M  CHG  1  30  -1
M  END
> <Name>
ZINC15746095

> <reference>
BDB50085459

> <quality>
0.800

> <status>
decoy

$$$$
ZINC20413456
  SciTegic06061311263D

 53 55  0  0  1  0            999 V2000
    2.5611   -0.3018   -1.6789 C   0  0
    1.8695    0.0576   -0.3623 C   0  0
    0.6660    0.7772   -0.6374 O   0  0
   -0.0686    1.1712    0.4241 C   0  0
    0.3043    0.9100    1.5528 O   0  0
   -1.2731    1.8818    0.2249 C   0  0
   -2.3797    1.1900   -0.0885 C   0  0
   -3.5934    1.8006   -0.2822 N   0  0
   -3.7094    3.1303    0.0990 C   0  0
   -4.7724    3.8760    0.2333 N   0  0
   -4.4106    5.1039    0.6333 C   0  0
   -3.1012    5.1464    0.7553 N   0  0
   -2.6253    3.8818    0.4121 N   0  0
   -1.2542    3.3804    0.3680 C   0  0  2  0  0  0
   -0.5343    3.9884   -0.8081 C   0  0
   -1.0088    3.7803   -2.0899 C   0  0
   -0.3524    4.3367   -3.1719 C   0  0
    0.7838    5.1044   -2.9731 C   0  0
    1.2616    5.3134   -1.6830 C   0  0
    0.5957    4.7576   -0.6024 C   0  0
    2.3764    6.0661   -1.4828 O   0  0
    2.8090    6.2381   -0.1317 C   0  0
    1.4304    5.6528   -4.0365 O   0  0
    0.8828    5.3965   -5.3313 C   0  0
    1.7259    6.0792   -6.3773 C   0  0
    2.6997    6.7220   -6.0465 O   0  0
    1.3977    5.9756   -7.6804 N   0  0
   -5.5113    6.4438    0.9458 S   0  0
   -7.1527    5.7531    0.6004 C   0  0
   -2.2875   -0.3079   -0.2265 C   0  0
    2.8030    0.6187   -2.2304 H   0  0
    1.8914   -0.9276   -2.2871 H   0  0
    3.4877   -0.8558   -1.4678 H   0  0
    1.6277   -0.8634    0.1883 H   0  0
    2.5391    0.6834    0.2460 H   0  0
   -4.3881    1.2915   -0.6948 H   0  0
   -0.7334    3.6538    1.2975 H   0  0
   -1.9105    3.1707   -2.2491 H   0  0
   -0.7321    4.1699   -4.1907 H   0  0
    0.9663    4.9285    0.4191 H   0  0
    2.9714    5.2278    0.2720 H   0  0
    1.9624    6.6857    0.4095 H   0  0
    3.7146    6.8572   -0.0504 H   0  0
   -0.1453    5.7848   -5.3793 H   0  0
    0.8744    4.3125   -5.5181 H   0  0
    0.5706    5.4298   -7.9613 H   0  0
    1.9740    6.4422   -8.3953 H   0  0
   -7.4036    4.9232    1.2774 H   0  0
   -7.2594    5.4445   -0.4500 H   0  0
   -7.8873    6.5519    0.7802 H   0  0
   -1.8921   -0.6699    0.7340 H   0  0
   -1.5173   -0.4879   -0.9910 H   0  0
   -3.2468   -0.7803   -0.4847 H   0  0
  1  2  1  0
  2  3  1  0
  3  4  1  0
  4  5  2  0
  4  6  1  0
  6 14  1  0
  6  7  2  0
  7  8  1  0
  7 30  1  0
  8  9  1  0
  9 13  1  0
  9 10  2  0
 10 11  1  0
 11 12  2  0
 11 28  1  0
 12 13  1  0
 13 14  1  0
 14 15  1  0
 15 20  2  0
 15 16  1  0
 16 17  2  0
 17 18  1  0
 18 19  2  0
 18 23  1  0
 19 20  1  0
 19 21  1  0
 21 22  1  0
 23 24  1  0
 24 25  1  0
 25 26  2  0
 25 27  1  0
 28 29  1  0
  1 31  1  0
  1 32  1  0
  1 33  1  0
  2 34  1  0
  2 35  1  0
  8 36  1  0
 14 37  1  0
 16 38  1  0
 17 39  1  0
 20 40  1  0
 22 41  1  0
 22 42  1  0
 22 43  1  0
 24 44  1  0
 24 45  1  0
 27 46  1  0
 27 47  1  0
 29 48  1  0
 29 49  1  0
 29 50  1  0
 30 51  1  0
 30 52  1  0
 30 53  1  0
M  END
> <Name>
ZINC20413456

> <reference>
BDB50085459

> <quality>
0.796

> <status>
decoy

$$$$
ZINC26006406
  SciTegic06061311263D

 48 50  0  0  1  0            999 V2000
    3.3503    0.2755   -3.1064 C   0  0
    3.1385    1.7326   -3.5223 C   0  0
    2.8818    2.5265   -2.3622 O   0  0
    2.6715    3.8452   -2.5566 C   0  0
    2.7055    4.3073   -3.6817 O   0  0
    2.4116    4.6903   -1.4524 C   0  0
    2.3138    6.0286   -1.6053 C   0  0
    2.0632    6.8433   -0.5384 N   0  0
    1.8982    6.3979    0.7135 C   0  0
    1.6785    7.2010    1.5991 O   0  0
    1.9675    5.0882    1.0236 N   0  0
    2.2341    4.1249   -0.0579 C   0  0  1  0  0  0
    1.0921    3.1424   -0.0968 C   0  0
    1.1321    1.7893   -0.1655 C   0  0
   -0.0563    1.0838   -0.1896 C   0  0
   -1.2268    1.7663   -0.1496 C   0  0
   -0.6647    3.4586   -0.0640 S   0  0
    2.4832    6.6325   -2.9755 C   0  0
    2.4496    8.0805   -2.8737 O   0  0
    2.5887    8.7784   -4.0197 C   0  0
    2.7340    8.1917   -5.0751 O   0  0
    2.5646   10.2429   -3.9930 C   0  0
    2.6937   11.0813   -5.0814 C   0  0
    2.6128   12.3910   -4.5993 C   0  0
    2.4399   12.3294   -3.2569 C   0  0
    2.4030   11.0346   -2.8780 N   0  0
    2.2247   10.5513   -1.5066 C   0  0
    2.7010   13.6256   -5.4110 N   0  0
    2.8580   13.5519   -6.6166 O   0  0
    2.6165   14.7153   -4.8734 O   0  0
    2.4477   -0.0973   -2.6002 H   0  0
    4.2080    0.2097   -2.4208 H   0  0
    3.5480   -0.3362   -3.9990 H   0  0
    4.0417    2.1047   -4.0281 H   0  0
    2.2808    1.7984   -4.2079 H   0  0
    1.9974    7.8574   -0.7061 H   0  0
    1.8371    4.7686    1.9940 H   0  0
    3.2083    3.6799    0.1932 H   0  0
    2.0960    1.2605   -0.2015 H   0  0
   -0.0523   -0.0150   -0.2405 H   0  0
   -2.2559    1.3782   -0.1657 H   0  0
    3.4486    6.3175   -3.3984 H   0  0
    1.6675    6.2927   -3.6306 H   0  0
    2.8337   10.7769   -6.1291 H   0  0
    2.3450   13.1948   -2.5846 H   0  0
    3.1003    9.9007   -1.3650 H   0  0
    1.3612    9.8763   -1.5997 H   0  0
    2.1087   11.3182   -0.7266 H   0  0
  1  2  1  0
  2  3  1  0
  3  4  1  0
  4  5  2  0
  4  6  1  0
  6 12  1  0
  6  7  2  0
  7  8  1  0
  7 18  1  0
  8  9  1  0
  9 10  2  0
  9 11  1  0
 11 12  1  0
 12 13  1  0
 13 17  1  0
 13 14  2  0
 14 15  1  0
 15 16  2  0
 16 17  1  0
 18 19  1  0
 19 20  1  0
 20 21  2  0
 20 22  1  0
 22 26  1  0
 22 23  2  0
 23 24  1  0
 24 25  2  0
 24 28  1  0
 25 26  1  0
 26 27  1  0
 28 29  2  0
 28 30  2  0
  1 31  1  0
  1 32  1  0
  1 33  1  0
  2 34  1  0
  2 35  1  0
  8 36  1  0
 11 37  1  0
 12 38  1  0
 14 39  1  0
 15 40  1  0
 16 41  1  0
 18 42  1  0
 18 43  1  0
 23 44  1  0
 25 45  1  0
 27 46  1  0
 27 47  1  0
 27 48  1  0
M  END
> <Name>
ZINC26006406

> <reference>
BDB50085459

> <quality>
0.795

> <status>
decoy

$$$$
ZINC23916060
  SciTegic06061311263D

 54 55  0  0  1  0            999 V2000
    2.9650    3.1362    2.0373 C   0  0
    4.0663    2.2773    1.4126 C   0  0  1  0  0  0
    4.2407    0.9967    2.2314 C   0  0
    3.6788    1.9160   -0.0228 C   0  0  1  0  0  0
    4.7635    1.0700   -0.6382 C   0  0
    4.5102   -0.0490   -1.0314 O   0  0
    6.0151    1.5569   -0.7516 N   0  0
    7.0235    0.7704   -1.3237 N   0  0
    8.2751    1.2573   -1.4371 C   0  0
    8.5293    2.3801   -1.0426 O   0  0
    9.3309    0.4339   -2.0361 C   0  0
   10.6466    0.8028   -2.2197 C   0  0
   11.2975   -0.2809   -2.8175 C   0  0
   10.3862   -1.2675   -2.9933 C   0  0
    9.1872   -0.8457   -2.5227 N   0  0
   12.7272   -0.3376   -3.1966 N   0  0
   13.1797   -1.3409   -3.7183 O   0  0
   13.4513    0.6191   -2.9868 O   0  0
    2.4201    1.1663   -0.0148 N   0  0
    1.2440    1.8243    0.0000 C   0  0
    1.2275    3.0413    0.0067 O   0  0
   -0.0126    1.0758    0.0080 C   0  0
   -1.1905    1.7347    0.0171 C   0  0
   -2.4535    0.9825    0.0190 C   0  0
   -2.4373   -0.4170    0.0056 C   0  0
   -3.6228   -1.1168    0.0128 C   0  0
   -4.8347   -0.4357    0.0227 C   0  0
   -4.8563    0.9543    0.0303 C   0  0
   -3.6764    1.6634    0.0285 C   0  0
   -6.0009   -1.1303    0.0245 O   0  0
   -5.9068   -2.5562    0.0164 C   0  0
    3.2428    3.3967    3.0693 H   0  0
    2.0194    2.5742    2.0435 H   0  0
    2.8391    4.0571    1.4490 H   0  0
    5.0113    2.8403    1.4067 H   0  0
    3.2962    0.4329    2.2378 H   0  0
    4.5195    1.2554    3.2636 H   0  0
    5.0324    0.3787    1.7827 H   0  0
    3.5535    2.8367   -0.6116 H   0  0
    6.2302    2.5072   -0.4177 H   0  0
    6.8084   -0.1799   -1.6576 H   0  0
   11.0990    1.7677   -1.9473 H   0  0
   10.5865   -2.2506   -3.4444 H   0  0
    8.3139   -1.3917   -2.5282 H   0  0
    2.4340    0.1364   -0.0205 H   0  0
    0.0024   -0.0241    0.0066 H   0  0
   -1.2054    2.8346    0.0231 H   0  0
   -1.4790   -0.9568   -0.0107 H   0  0
   -3.6111   -2.2167    0.0107 H   0  0
   -5.8179    1.4884    0.0378 H   0  0
   -3.6946    2.7632    0.0345 H   0  0
   -5.3145   -2.8321    0.9013 H   0  0
   -5.3229   -2.8226   -0.8770 H   0  0
   -6.8910   -3.0475    0.0184 H   0  0
  1  2  1  0
  2  3  1  0
  2  4  1  0
  4  5  1  0
  4 19  1  0
  5  6  2  0
  5  7  1  0
  7  8  1  0
  8  9  1  0
  9 10  2  0
  9 11  1  0
 11 15  1  0
 11 12  2  0
 12 13  1  0
 13 14  2  0
 13 16  1  0
 14 15  1  0
 16 17  2  0
 16 18  2  0
 19 20  1  0
 20 21  2  0
 20 22  1  0
 22 23  2  0
 23 24  1  0
 24 29  2  0
 24 25  1  0
 25 26  2  0
 26 27  1  0
 27 28  2  0
 27 30  1  0
 28 29  1  0
 30 31  1  0
  1 32  1  0
  1 33  1  0
  1 34  1  0
  2 35  1  0
  3 36  1  0
  3 37  1  0
  3 38  1  0
  4 39  1  0
  7 40  1  0
  8 41  1  0
 12 42  1  0
 14 43  1  0
 15 44  1  0
 19 45  1  0
 22 46  1  0
 23 47  1  0
 25 48  1  0
 26 49  1  0
 28 50  1  0
 29 51  1  0
 31 52  1  0
 31 53  1  0
 31 54  1  0
M  END
> <Name>
ZINC23916060

> <reference>
BDB50085459

> <quality>
0.792

> <status>
decoy

$$$$
ZINC08949357
  SciTegic06061311263D

 51 53  0  0  0  0            999 V2000
    6.4087    1.5505   -0.0546 C   0  0
    4.9908    0.9758   -0.0431 C   0  0
    3.7908    2.3307   -0.0235 S   0  0
    2.2890    1.4092   -0.0130 C   0  0
    2.3526    0.0819   -0.0208 N   0  0
    1.2508   -0.6576   -0.0138 C   0  0
    0.0021   -0.0041    0.0020 C   0  0
   -1.3420   -0.4357    0.0130 C   0  0
   -2.1126    0.6143    0.0263 N   0  0
   -1.3287    1.7749    0.0297 N   0  0
   -0.0170    1.4040    0.0098 C   0  0
    1.1400    2.0640    0.0023 N   0  0
   -1.8318    3.1507    0.0446 C   0  0
   -2.0264    3.6382   -1.3926 C   0  0
   -2.5295    5.0140   -1.3776 N   0  0
   -2.7767    5.6537   -2.5379 C   0  0
   -2.5820    5.0885   -3.5978 O   0  0
   -3.2803    7.0311   -2.5229 C   0  0
   -3.5656    7.7930   -3.6195 C   0  0
   -4.0190    9.0328   -3.1426 C   0  0
   -3.9830    8.9770   -1.7929 C   0  0
   -3.5374    7.7693   -1.4233 O   0  0
   -4.3720   10.0706   -0.8743 N   0  0
   -4.7656   11.1321   -1.3233 O   0  0
   -4.2984    9.9088    0.3307 O   0  0
    1.3260   -2.0365   -0.0215 N   0  0
    2.6326   -2.6988   -0.0380 C   0  0
    2.4353   -4.2160   -0.0437 C   0  0
    1.7970   -4.6088   -1.2603 O   0  0
    1.5650   -6.0148   -1.3674 C   0  0
    6.5643    2.1639    0.8451 H   0  0
    6.5458    2.1735   -0.9507 H   0  0
    7.1386    0.7276   -0.0665 H   0  0
    4.8361    0.3628   -0.9433 H   0  0
    4.8537    0.3527    0.8530 H   0  0
   -1.6812   -1.4821    0.0107 H   0  0
   -2.7945    3.1835    0.5758 H   0  0
   -1.1079    3.8015    0.5569 H   0  0
   -1.0640    3.6060   -1.9243 H   0  0
   -2.7510    2.9892   -1.9062 H   0  0
   -2.6943    5.4924   -0.4804 H   0  0
   -3.4605    7.4932   -4.6726 H   0  0
   -4.3428    9.8889   -3.7528 H   0  0
    0.4634   -2.5993   -0.0156 H   0  0
    3.2039   -2.4075    0.8557 H   0  0
    3.1849   -2.3980   -0.9405 H   0  0
    3.4134   -4.7134    0.0338 H   0  0
    1.8066   -4.5083    0.8103 H   0  0
    0.9427   -6.3143   -0.5113 H   0  0
    2.5390   -6.5189   -1.2827 H   0  0
    1.0731   -6.2721   -2.3170 H   0  0
  1  2  1  0
  2  3  1  0
  3  4  1  0
  4 12  1  0
  4  5  2  0
  5  6  1  0
  6  7  2  0
  6 26  1  0
  7 11  1  0
  7  8  1  0
  8  9  2  0
  9 10  1  0
 10 11  1  0
 10 13  1  0
 11 12  2  0
 13 14  1  0
 14 15  1  0
 15 16  1  0
 16 17  2  0
 16 18  1  0
 18 22  1  0
 18 19  2  0
 19 20  1  0
 20 21  2  0
 21 22  1  0
 21 23  1  0
 23 24  2  0
 23 25  2  0
 26 27  1  0
 27 28  1  0
 28 29  1  0
 29 30  1  0
  1 31  1  0
  1 32  1  0
  1 33  1  0
  2 34  1  0
  2 35  1  0
  8 36  1  0
 13 37  1  0
 13 38  1  0
 14 39  1  0
 14 40  1  0
 15 41  1  0
 19 42  1  0
 20 43  1  0
 26 44  1  0
 27 45  1  0
 27 46  1  0
 28 47  1  0
 28 48  1  0
 30 49  1  0
 30 50  1  0
 30 51  1  0
M  END
> <Name>
ZINC08949357

> <reference>
BDB50085459

> <quality>
0.791

> <status>
decoy

$$$$
ZINC25706258
  SciTegic06061311263D

 51 52  0  0  1  0            999 V2000
    2.3775   -4.7789    1.3975 C   0  0
    2.3806   -4.2620   -0.0425 C   0  0  2  0  0  0
    3.5866   -4.8016   -0.7674 C   0  0
    4.4513   -4.0443   -1.1529 O   0  0
    3.7039   -6.1262   -0.9872 N   0  0
    4.7824   -6.6088   -1.6355 C   0  0
    5.6493   -5.8496   -2.0219 O   0  0
    4.8997   -7.9333   -1.8553 N   0  0
    6.0720   -8.4579   -2.5600 C   0  0
    5.9603   -9.9564   -2.6746 C   0  0
    6.0366  -10.5310   -3.8494 C   0  0
    2.4293   -2.8108   -0.0357 O   0  0
    1.2502   -2.1594   -0.0210 C   0  0
    0.2099   -2.7865   -0.0140 O   0  0
    1.2224   -0.6824   -0.0133 C   0  0
    0.0021   -0.0041    0.0020 C   0  0
   -0.0166    1.3752    0.0096 C   0  0
    1.1703    2.0864    0.0021 C   0  0
    2.3831    1.4205   -0.0130 C   0  0
    2.4163    0.0415   -0.0207 C   0  0
    1.1371    3.8481    0.0118 S   0  0
    2.3692    4.2806   -0.5485 O   0  0
   -0.1209    4.2336   -0.5250 O   0  0
    1.1429    4.3291    1.5964 N   0  0
    2.3063    4.0507    2.4422 C   0  0
    2.2301    4.8879    3.6929 C   0  0
    1.6365    4.5285    4.8452 C   0  0
    1.8018    5.6065    5.7448 C   0  0
    2.4865    6.5603    5.0884 C   0  0
    2.7482    6.1172    3.8479 O   0  0
    3.2920   -4.4454    1.9098 H   0  0
    2.3404   -5.8783    1.3934 H   0  0
    1.4974   -4.3854    1.9272 H   0  0
    1.4657   -4.5959   -0.5538 H   0  0
    2.9693   -6.7696   -0.6597 H   0  0
    4.1651   -8.5767   -1.5278 H   0  0
    6.9833   -8.2007   -2.0002 H   0  0
    6.1230   -8.0165   -3.5663 H   0  0
    5.8147  -10.5677   -1.7718 H   0  0
    6.1822   -9.9197   -4.7522 H   0  0
    5.9551  -11.6248   -3.9330 H   0  0
   -0.9422   -0.5683    0.0080 H   0  0
   -0.9773    1.9109    0.0217 H   0  0
    3.3229    1.9921   -0.0189 H   0  0
    3.3811   -0.4866   -0.0326 H   0  0
    0.3286    4.8240    1.9874 H   0  0
    2.3149    2.9851    2.7149 H   0  0
    3.2273    4.2961    1.8932 H   0  0
    1.1213    3.5781    5.0486 H   0  0
    1.4399    5.6558    6.7824 H   0  0
    2.7820    7.5374    5.4982 H   0  0
  1  2  1  0
  2  3  1  0
  2 12  1  0
  3  4  2  0
  3  5  1  0
  5  6  1  0
  6  7  2  0
  6  8  1  0
  8  9  1  0
  9 10  1  0
 10 11  2  0
 12 13  1  0
 13 14  2  0
 13 15  1  0
 15 20  2  0
 15 16  1  0
 16 17  2  0
 17 18  1  0
 18 19  2  0
 18 21  1  0
 19 20  1  0
 21 22  2  0
 21 23  2  0
 21 24  1  0
 24 25  1  0
 25 26  1  0
 26 30  1  0
 26 27  2  0
 27 28  1  0
 28 29  2  0
 29 30  1  0
  1 31  1  0
  1 32  1  0
  1 33  1  0
  2 34  1  0
  5 35  1  0
  8 36  1  0
  9 37  1  0
  9 38  1  0
 10 39  1  0
 11 40  1  0
 11 41  1  0
 16 42  1  0
 17 43  1  0
 19 44  1  0
 20 45  1  0
 24 46  1  0
 25 47  1  0
 25 48  1  0
 27 49  1  0
 28 50  1  0
 29 51  1  0
M  END
> <Name>
ZINC25706258

> <reference>
BDB50085459

> <quality>
0.789

> <status>
decoy

$$$$
ZINC17246880
  SciTegic06061311263D

 45 46  0  0  0  0            999 V2000
   10.3153    9.2819    4.7124 C   0  0
   10.7084   10.7207    3.6800 S   0  0
   12.0928   10.7299    3.3599 O   0  0
   10.0773   11.8830    4.1996 O   0  0
    9.9436   10.4327    2.2397 N   0  0
    8.4806   10.3774    2.1854 C   0  0
    8.0202   10.4758    0.7297 C   0  0
    6.5153   10.4189    0.6738 C   0  0
    5.6290   11.4481    0.7279 C   0  0
    4.2852   11.1793    0.6606 C   0  0
    3.9127    9.8486    0.5394 C   0  0
    5.4950    9.0245    0.5328 S   0  0
    2.5708    9.2707    0.4474 C   0  0
    1.5938    9.9946    0.4739 O   0  0
    2.4179    7.9353    0.3331 O   0  0
    1.0586    7.4324    0.2467 C   0  0
    1.0853    5.9306    0.1248 C   0  0
    2.1457    5.3420    0.1121 O   0  0
   -0.0691    5.2415    0.0299 N   0  0
   -0.0506    3.8424    0.0280 C   0  0
    0.9069    3.1580    0.7656 C   0  0
    0.9222    1.7772    0.7620 C   0  0
   -0.0145    1.0757    0.0250 C   0  0
   -0.9657    1.7540   -0.7145 C   0  0
   -0.9896    3.1352   -0.7109 C   0  0
   -1.9628    0.9994   -1.5063 N   0  0
   -1.9452   -0.2185   -1.5062 O   0  0
   -2.8010    1.5963   -2.1580 O   0  0
   10.9050    9.3290    5.6398 H   0  0
   10.5705    8.3624    4.1653 H   0  0
    9.2426    9.2817    4.9559 H   0  0
   10.4965   10.2924    1.3820 H   0  0
    8.1332    9.4265    2.6158 H   0  0
    8.0593   11.2155    2.7599 H   0  0
    8.3669   11.4267    0.2988 H   0  0
    8.4397    9.6377    0.1538 H   0  0
    5.9850   12.4844    0.8245 H   0  0
    3.5361   11.9838    0.7010 H   0  0
    0.5628    7.8624   -0.6361 H   0  0
    0.5041    7.7163    1.1533 H   0  0
   -0.9649    5.7448   -0.0412 H   0  0
    1.6522    3.7153    1.3520 H   0  0
    1.6802    1.2346    1.3460 H   0  0
   -0.0028   -0.0242    0.0271 H   0  0
   -1.7517    3.6742   -1.2928 H   0  0
  1  2  1  0
  2  3  2  0
  2  4  2  0
  2  5  1  0
  5  6  1  0
  6  7  1  0
  7  8  1  0
  8 12  1  0
  8  9  2  0
  9 10  1  0
 10 11  2  0
 11 12  1  0
 11 13  1  0
 13 14  2  0
 13 15  1  0
 15 16  1  0
 16 17  1  0
 17 18  2  0
 17 19  1  0
 19 20  1  0
 20 25  2  0
 20 21  1  0
 21 22  2  0
 22 23  1  0
 23 24  2  0
 24 25  1  0
 24 26  1  0
 26 27  2  0
 26 28  2  0
  1 29  1  0
  1 30  1  0
  1 31  1  0
  5 32  1  0
  6 33  1  0
  6 34  1  0
  7 35  1  0
  7 36  1  0
  9 37  1  0
 10 38  1  0
 16 39  1  0
 16 40  1  0
 19 41  1  0
 21 42  1  0
 22 43  1  0
 23 44  1  0
 25 45  1  0
M  END
> <Name>
ZINC17246880

> <reference>
BDB50085459

> <quality>
0.788

> <status>
decoy

$$$$
ZINC15127191
  SciTegic06061311263D

 62 63  0  0  0  0            999 V2000
   -1.6597    0.3938   -4.9566 C   0  0
   -1.3946   -0.9630   -4.3012 C   0  0
   -2.4726   -1.2684   -3.3574 N   0  0
   -2.4494   -2.4656   -2.6316 C   0  0
   -1.4071   -3.3636   -2.8047 C   0  0
   -1.3863   -4.5452   -2.0870 C   0  0
   -2.4026   -4.8354   -1.1957 C   0  0
   -3.4461   -3.9459   -1.0173 C   0  0
   -3.4717   -2.7557   -1.7283 C   0  0
   -4.5241   -1.8506   -1.5445 N   0  0
   -5.5969   -2.1575   -0.5952 C   0  0
   -6.5971   -1.0304   -0.5859 C   0  0
   -6.4304   -0.0657   -1.3019 O   0  0
   -7.6770   -1.0943    0.2179 N   0  0
   -8.5655   -0.0153    0.2832 C   0  0
   -8.0896    1.2632    0.5429 C   0  0
   -8.9686    2.3269    0.6015 C   0  0
  -10.3225    2.1182    0.4128 C   0  0
  -10.8002    0.8455    0.1597 C   0  0
   -9.9258   -0.2216    0.0942 C   0  0
  -10.4471   -1.6082   -0.1826 C   0  0
   -6.6149    1.4907    0.7542 C   0  0
   -2.3684   -6.3435   -0.2851 S   0  0
   -3.7122   -6.6290    0.0783 O   0  0
   -1.5722   -7.2518   -1.0335 O   0  0
   -1.5501   -6.0464    1.1236 N   0  0
   -2.2782   -5.5977    2.3130 C   0  0
   -2.6144   -6.8049    3.1907 C   0  0
   -0.0980   -6.2322    1.1803 C   0  0
    0.5979   -4.8944    0.9217 C   0  0
   -1.7005    1.1743   -4.1826 H   0  0
   -2.6187    0.3612   -5.4945 H   0  0
   -0.8506    0.6237   -5.6654 H   0  0
   -1.3543   -1.7429   -5.0759 H   0  0
   -0.4356   -0.9305   -3.7633 H   0  0
   -3.2476   -0.6025   -3.2277 H   0  0
   -0.5968   -3.1359   -3.5130 H   0  0
   -0.5587   -5.2565   -2.2256 H   0  0
   -4.2559   -4.1824   -0.3114 H   0  0
   -4.5440   -0.9690   -2.0767 H   0  0
   -5.1728   -2.2787    0.4125 H   0  0
   -6.0980   -3.0892   -0.8966 H   0  0
   -7.8483   -1.9374    0.7842 H   0  0
   -8.5913    3.3412    0.7985 H   0  0
  -11.0210    2.9664    0.4641 H   0  0
  -11.8778    0.6828    0.0104 H   0  0
  -10.0988   -2.2182    0.6639 H   0  0
   -9.8985   -1.9465   -1.0740 H   0  0
  -11.5380   -1.6560   -0.3158 H   0  0
   -6.1328    1.0983   -0.1533 H   0  0
   -6.3391    0.8224    1.5832 H   0  0
   -6.3495    2.5397    0.9524 H   0  0
   -3.2087   -5.0970    2.0075 H   0  0
   -1.6529   -4.8941    2.8821 H   0  0
   -1.6848   -7.3063    3.4981 H   0  0
   -3.2398   -7.5095    2.6229 H   0  0
   -3.1612   -6.4687    4.0840 H   0  0
    0.2100   -6.9590    0.4142 H   0  0
    0.1854   -6.6060    2.1753 H   0  0
    0.2919   -4.1667    1.6877 H   0  0
    0.3155   -4.5193   -0.0731 H   0  0
    1.6883   -5.0332    0.9641 H   0  0
  1  2  1  0
  2  3  1  0
  3  4  1  0
  4  9  2  0
  4  5  1  0
  5  6  2  0
  6  7  1  0
  7  8  2  0
  7 23  1  0
  8  9  1  0
  9 10  1  0
 10 11  1  0
 11 12  1  0
 12 13  2  0
 12 14  1  0
 14 15  1  0
 15 20  2  0
 15 16  1  0
 16 17  2  0
 16 22  1  0
 17 18  1  0
 18 19  2  0
 19 20  1  0
 20 21  1  0
 23 24  2  0
 23 25  2  0
 23 26  1  0
 26 27  1  0
 26 29  1  0
 27 28  1  0
 29 30  1  0
  1 31  1  0
  1 32  1  0
  1 33  1  0
  2 34  1  0
  2 35  1  0
  3 36  1  0
  5 37  1  0
  6 38  1  0
  8 39  1  0
 10 40  1  0
 11 41  1  0
 11 42  1  0
 14 43  1  0
 17 44  1  0
 18 45  1  0
 19 46  1  0
 21 47  1  0
 21 48  1  0
 21 49  1  0
 22 50  1  0
 22 51  1  0
 22 52  1  0
 27 53  1  0
 27 54  1  0
 28 55  1  0
 28 56  1  0
 28 57  1  0
 29 58  1  0
 29 59  1  0
 30 60  1  0
 30 61  1  0
 30 62  1  0
M  END
> <Name>
ZINC15127191

> <reference>
BDB50085459

> <quality>
0.786

> <status>
decoy

$$$$
ZINC26318909
  SciTegic06061311263D

 52 54  0  0  0  0            999 V2000
    2.1596    5.7607    0.0124 C   0  0
    2.3806    4.2468    0.0021 C   0  0
    1.0269    3.5337    0.0112 C   0  0
    1.2479    2.0198    0.0010 C   0  0
   -0.0163    1.3538    0.0095 O   0  0
    0.0021   -0.0041    0.0020 C   0  0
    1.2145   -0.6803   -0.0132 C   0  0
    1.2385   -2.0580   -0.0199 C   0  0
    0.0411   -2.7776   -0.0119 C   0  0
   -1.1793   -2.0972    0.0030 C   0  0
   -1.1964   -0.7160    0.0155 C   0  0
   -2.3824   -0.0507    0.0356 O   0  0
   -3.5710   -0.8438    0.0485 C   0  0
    0.0651   -4.2534   -0.0195 C   0  0
   -0.9778   -4.8784   -0.0125 O   0  0
    1.2430   -4.9082   -0.0343 N   0  0
    1.2658   -6.3090   -0.0416 N   0  5
    2.0902   -7.1176   -1.2285 S   0  0
    2.0488   -8.4958   -0.8851 O   0  0
    1.6014   -6.6266   -2.4692 O   0  0
    3.7777   -6.6223   -1.1206 C   0  0
    4.2281   -5.5327   -1.8437 C   0  0
    5.5468   -5.1369   -1.7599 C   0  0
    6.4385   -5.8405   -0.9524 C   0  0
    5.9752   -6.9361   -0.2352 C   0  0
    4.6573   -7.3259   -0.3165 C   0  0
    7.1613   -7.4755    0.5306 C   0  0
    8.2985   -6.5535    0.1451 C   0  0
    9.4453   -6.6224    0.5338 O   0  0
    7.7982   -5.6441   -0.7084 N   0  0
    1.6024    6.0448    0.9173 H   0  0
    1.5852    6.0545   -0.8785 H   0  0
    3.1325    6.2740    0.0059 H   0  0
    2.9375    3.9636   -0.9032 H   0  0
    2.9550    3.9529    0.8930 H   0  0
    0.4695    3.8162    0.9165 H   0  0
    0.4515    3.8255   -0.8797 H   0  0
    1.8049    1.7365   -0.9043 H   0  0
    1.8223    1.7260    0.8919 H   0  0
    2.1581   -0.1150   -0.0199 H   0  0
    2.2005   -2.5912   -0.0315 H   0  0
   -2.1243   -2.6602    0.0048 H   0  0
   -3.4999   -1.4932    0.9335 H   0  0
   -3.5250   -1.4844   -0.8446 H   0  0
   -4.4878   -0.2362    0.0645 H   0  0
    2.1265   -4.3787   -0.0402 H   0  0
    3.5308   -4.9786   -2.4893 H   0  0
    5.8953   -4.2641   -2.3316 H   0  0
    4.3039   -8.1955    0.2570 H   0  0
    6.9740   -7.4133    1.6128 H   0  0
    7.3838   -8.5044    0.2114 H   0  0
    8.3546   -4.8888   -1.1337 H   0  0
  1  2  1  0
  2  3  1  0
  3  4  1  0
  4  5  1  0
  5  6  1  0
  6 11  2  0
  6  7  1  0
  7  8  2  0
  8  9  1  0
  9 10  2  0
  9 14  1  0
 10 11  1  0
 11 12  1  0
 12 13  1  0
 14 15  2  0
 14 16  1  0
 16 17  1  0
 17 18  1  0
 18 19  2  0
 18 20  2  0
 18 21  1  0
 21 26  2  0
 21 22  1  0
 22 23  2  0
 23 24  1  0
 24 30  1  0
 24 25  2  0
 25 26  1  0
 25 27  1  0
 27 28  1  0
 28 29  2  0
 28 30  1  0
  1 31  1  0
  1 32  1  0
  1 33  1  0
  2 34  1  0
  2 35  1  0
  3 36  1  0
  3 37  1  0
  4 38  1  0
  4 39  1  0
  7 40  1  0
  8 41  1  0
 10 42  1  0
 13 43  1  0
 13 44  1  0
 13 45  1  0
 16 46  1  0
 22 47  1  0
 23 48  1  0
 26 49  1  0
 27 50  1  0
 27 51  1  0
 30 52  1  0
M  CHG  1  17  -1
M  END
> <Name>
ZINC26318909

> <reference>
BDB50085459

> <quality>
0.786

> <status>
decoy

$$$$
ZINC20923883
  SciTegic06061311263D

 48 50  0  0  0  0            999 V2000
   17.1001   -4.6566    1.0025 C   0  0
   16.9515   -3.6892   -0.1735 C   0  0
   15.6079   -3.1054   -0.1588 N   0  0
   15.3198   -1.7880   -0.1503 C   0  0
   13.9474   -1.6667   -0.1369 C   0  0
   13.4111   -2.9722   -0.1319 C   0  0
   14.4044   -3.8197   -0.1506 N   0  0
   13.1804   -0.4055   -0.1237 C   0  0
   11.8831   -0.4351   -0.1118 N   0  0
   11.1552    0.7619   -0.0993 N   0  0
    9.7684    0.7302   -0.0865 C   0  0
    8.9397    1.8177   -0.0735 N   0  0
    7.6504    1.3659   -0.0637 C   0  0
    7.6803    0.0548   -0.0652 N   0  0
    9.0221   -0.3477   -0.0846 N   0  0
    6.2018    2.3688   -0.0444 S   0  0
    4.8392    1.1713   -0.0379 C   0  0
    3.5240    1.9070   -0.0213 C   0  0
    3.5076    3.1197   -0.0147 O   0  0
    2.3661    1.2173   -0.0140 N   0  0
    1.1435    1.9012    0.0014 N   0  0
   -0.0144    1.2115    0.0087 C   0  0
    0.0021   -0.0041    0.0020 O   0  0
   -1.3036    1.9326    0.0187 C   0  0
   -1.3254    3.3289    0.0323 C   0  0
   -2.5312    3.9968    0.0363 C   0  0
   -3.7209    3.2848    0.0385 C   0  0
   -3.7050    1.8984    0.0304 C   0  0
   -2.5049    1.2205    0.0206 C   0  0
   -4.9000    3.9443    0.0482 F   0  0
   16.3518   -5.4582    0.9160 H   0  0
   16.9473   -4.1136    1.9469 H   0  0
   18.1088   -5.0953    0.9921 H   0  0
   17.6999   -2.8878   -0.0860 H   0  0
   17.1043   -4.2321   -1.1179 H   0  0
   16.0466   -0.9623   -0.1535 H   0  0
   12.3421   -3.2309   -0.1152 H   0  0
   13.7085    0.5594   -0.1240 H   0  0
   11.6497    1.6654   -0.0996 H   0  0
    9.3625   -1.3198   -0.0955 H   0  0
    4.9136    0.5345    0.8559 H   0  0
    4.8970    0.5450   -0.9403 H   0  0
    2.3801    0.1874   -0.0197 H   0  0
    1.1295    2.9311    0.0071 H   0  0
   -0.3821    3.8947    0.0398 H   0  0
   -2.5496    5.0966    0.0377 H   0  0
   -4.6518    1.3385    0.0318 H   0  0
   -2.4934    0.1206    0.0143 H   0  0
  1  2  1  0
  2  3  1  0
  3  7  1  0
  3  4  1  0
  4  5  2  0
  5  6  1  0
  5  8  1  0
  6  7  2  0
  8  9  2  0
  9 10  1  0
 10 11  1  0
 11 15  1  0
 11 12  2  0
 12 13  1  0
 13 14  2  0
 13 16  1  0
 14 15  1  0
 16 17  1  0
 17 18  1  0
 18 19  2  0
 18 20  1  0
 20 21  1  0
 21 22  1  0
 22 23  2  0
 22 24  1  0
 24 29  2  0
 24 25  1  0
 25 26  2  0
 26 27  1  0
 27 28  2  0
 27 30  1  0
 28 29  1  0
  1 31  1  0
  1 32  1  0
  1 33  1  0
  2 34  1  0
  2 35  1  0
  4 36  1  0
  6 37  1  0
  8 38  1  0
 10 39  1  0
 15 40  1  0
 17 41  1  0
 17 42  1  0
 20 43  1  0
 21 44  1  0
 25 45  1  0
 26 46  1  0
 28 47  1  0
 29 48  1  0
M  END
> <Name>
ZINC20923883

> <reference>
BDB50085459

> <quality>
0.784

> <status>
decoy

$$$$
ZINC26752979
  SciTegic06061311263D

 57 59  0  0  1  0            999 V2000
    3.7668   -2.0823   -4.5458 C   0  0
    2.3384   -2.0434   -4.5343 O   0  0
    1.7437   -1.5497   -3.4165 C   0  0
    0.3603   -1.4828   -3.3373 C   0  0
   -0.2418   -0.9801   -2.2001 C   0  0
    0.5331   -0.5434   -1.1416 C   0  0
    1.9122   -0.6037   -1.2203 C   0  0
    2.5190   -1.1112   -2.3528 C   0  0
   -0.1263    0.0051    0.0975 C   0  0  2  0  0  0
   -0.0934    1.5342    0.0585 C   0  0
   -0.9205    2.0123   -1.0522 N   0  0
   -1.4090    3.5939   -1.0997 S   0  0
   -2.1621    3.7506   -2.2945 O   0  0
   -1.9436    3.8926    0.1825 O   0  0
    0.0389    4.5810   -1.2840 C   0  0
    0.7077    5.0406   -0.1610 C   0  0
    1.8464    5.8100   -0.2924 C   0  0
    2.3224    6.1378   -1.5534 C   0  0
    1.6455    5.6797   -2.6917 C   0  0
    0.4976    4.8971   -2.5442 C   0  0
    2.1424    6.0215   -4.0381 C   0  0
    3.1418    6.7028   -4.1625 O   0  0
    1.4887    5.5785   -5.1303 N   0  0
    3.4383    6.8980   -1.6840 O   0  0
    4.0748    7.3284   -0.4792 C   0  0
    0.5937   -0.4701    1.2865 N   0  0
   -0.0146    0.0711    2.5288 C   0  0
    0.4888   -0.9029    3.6235 C   0  0
    0.4594   -2.2727    2.9075 C   0  0
    0.5093   -1.9420    1.4043 C   0  0
    4.0669   -2.6836   -3.6749 H   0  0
    4.1057   -1.0497   -4.3759 H   0  0
    4.1737   -2.4934   -5.4815 H   0  0
   -0.2567   -1.8297   -4.1793 H   0  0
   -1.3387   -0.9272   -2.1367 H   0  0
    2.5267   -0.2473   -0.3804 H   0  0
    3.6160   -1.1676   -2.4112 H   0  0
   -1.1705   -0.3381    0.1397 H   0  0
    0.9424    1.8763   -0.0829 H   0  0
   -0.4855    1.9338    1.0054 H   0  0
   -1.1981    1.3647   -1.8035 H   0  0
    0.3291    4.7910    0.8412 H   0  0
    2.3769    6.1636    0.6040 H   0  0
   -0.0392    4.5338   -3.4329 H   0  0
    0.6422    5.0013   -5.0250 H   0  0
    1.8356    5.8171   -6.0703 H   0  0
    4.3169    6.4161    0.0857 H   0  0
    3.3160    7.8860    0.0894 H   0  0
    4.9706    7.9389   -0.6660 H   0  0
    0.3580    1.0872    2.7254 H   0  0
   -1.1122    0.0346    2.4652 H   0  0
   -0.2025   -0.9061    4.4791 H   0  0
    1.5183   -0.6484    3.9158 H   0  0
   -0.4747   -2.8028    3.1449 H   0  0
    1.3416   -2.8652    3.1917 H   0  0
    1.3985   -2.4051    0.9516 H   0  0
   -0.4065   -2.3037    0.9138 H   0  0
  1  2  1  0
  2  3  1  0
  3  8  2  0
  3  4  1  0
  4  5  2  0
  5  6  1  0
  6  7  2  0
  6  9  1  0
  7  8  1  0
  9 10  1  0
  9 26  1  0
 10 11  1  0
 11 12  1  0
 12 13  2  0
 12 14  2  0
 12 15  1  0
 15 20  2  0
 15 16  1  0
 16 17  2  0
 17 18  1  0
 18 19  2  0
 18 24  1  0
 19 20  1  0
 19 21  1  0
 21 22  2  0
 21 23  1  0
 24 25  1  0
 26 30  1  0
 26 27  1  0
 27 28  1  0
 28 29  1  0
 29 30  1  0
  1 31  1  0
  1 32  1  0
  1 33  1  0
  4 34  1  0
  5 35  1  0
  7 36  1  0
  8 37  1  0
  9 38  1  0
 10 39  1  0
 10 40  1  0
 11 41  1  0
 16 42  1  0
 17 43  1  0
 20 44  1  0
 23 45  1  0
 23 46  1  0
 25 47  1  0
 25 48  1  0
 25 49  1  0
 27 50  1  0
 27 51  1  0
 28 52  1  0
 28 53  1  0
 29 54  1  0
 29 55  1  0
 30 56  1  0
 30 57  1  0
M  END
> <Name>
ZINC26752979

> <reference>
BDB50085459

> <quality>
0.783

> <status>
decoy

$$$$
ZINC22249398
  SciTegic06061311263D

 51 53  0  0  0  0            999 V2000
    1.3201   -9.9304   -1.1277 C   0  0
    1.2969   -8.5282   -1.6795 C   0  0
    1.2815   -8.3283   -3.0167 C   0  0
    1.2593   -7.0116   -3.5240 C   0  0
    1.2449   -6.8190   -4.7270 O   0  0
    1.2537   -5.9706   -2.6726 N   0  0
    1.2693   -6.1795   -1.3280 C   0  0
    1.2909   -7.4616   -0.8302 N   0  0
    1.2642   -5.0001   -0.7410 N   0  0
    1.2371   -4.0354   -1.6657 C   0  0
    1.2332   -4.5816   -2.8602 N   0  0
    1.2216   -2.6674   -1.4041 N   0  0
    1.2281   -2.1860   -0.0204 C   0  0
    1.2083   -0.6792   -0.0127 C   0  0
    0.0021   -0.0041    0.0020 C   0  0
   -0.0167    1.3779    0.0096 C   0  0
    1.1721    2.0856    0.0021 C   0  0
    2.3790    1.4094   -0.0126 C   0  0
    2.3965    0.0274   -0.0198 C   0  0
    1.1494    3.8215    0.0110 Cl  0  0
    1.2875   -9.5041   -3.9593 C   0  0
   -0.1492   -9.8421   -4.3622 C   0  0
   -0.1432  -11.0179   -5.3049 C   0  0
    0.9069  -11.5346   -5.6231 O   0  0
   -1.3047  -11.4952   -5.7943 N   0  0
   -1.2989  -12.6382   -6.7106 C   0  0
   -2.7140  -12.9712   -7.1075 C   0  0
   -3.6332  -12.3204   -6.6698 O   0  0
   -2.9534  -13.9906   -7.9472 O   0  0
   -4.3406  -14.2540   -8.2857 C   0  0
    0.4412   -9.9940   -0.4693 H   0  0
    2.2123   -9.9711   -0.4855 H   0  0
    1.3231  -10.7119   -1.9018 H   0  0
    0.4529   -7.3168   -5.0512 H   0  0
    1.2056   -1.9942   -2.1835 H   0  0
    0.3395   -2.5665    0.5045 H   0  0
    2.1356   -2.5426    0.4888 H   0  0
   -0.9430   -0.5669    0.0077 H   0  0
   -0.9766    1.9150    0.0216 H   0  0
    3.3245    1.9716   -0.0186 H   0  0
    3.3560   -0.5104   -0.0312 H   0  0
    1.8698   -9.2511   -4.8576 H   0  0
    1.7417  -10.3730   -3.4606 H   0  0
   -0.6047   -8.9746   -4.8621 H   0  0
   -0.7319  -10.0957   -3.4644 H   0  0
   -2.1965  -11.0563   -5.5241 H   0  0
   -0.8447  -13.5071   -6.2119 H   0  0
   -0.7166  -12.3852   -7.6089 H   0  0
   -4.7362  -13.3233   -8.7185 H   0  0
   -4.8631  -14.4335   -7.3345 H   0  0
   -4.4542  -15.1023   -8.9766 H   0  0
  1  2  1  0
  2  8  2  0
  2  3  1  0
  3  4  2  0
  3 21  1  0
  4  5  1  0
  4  6  1  0
  6 11  1  0
  6  7  1  0
  7  8  1  0
  7  9  2  0
  9 10  1  0
 10 11  2  0
 10 12  1  0
 12 13  1  0
 13 14  1  0
 14 19  2  0
 14 15  1  0
 15 16  2  0
 16 17  1  0
 17 18  2  0
 17 20  1  0
 18 19  1  0
 21 22  1  0
 22 23  1  0
 23 24  2  0
 23 25  1  0
 25 26  1  0
 26 27  1  0
 27 28  2  0
 27 29  1  0
 29 30  1  0
  1 31  1  0
  1 32  1  0
  1 33  1  0
  5 34  1  0
 12 35  1  0
 13 36  1  0
 13 37  1  0
 15 38  1  0
 16 39  1  0
 18 40  1  0
 19 41  1  0
 21 42  1  0
 21 43  1  0
 22 44  1  0
 22 45  1  0
 25 46  1  0
 26 47  1  0
 26 48  1  0
 30 49  1  0
 30 50  1  0
 30 51  1  0
M  END
> <Name>
ZINC22249398

> <reference>
BDB50085459

> <quality>
0.782

> <status>
decoy

$$$$
ZINC17100805
  SciTegic06061311263D

 44 45  0  0  0  0            999 V2000
    0.1339   -2.9538    0.4992 C   0  0
   -0.1528   -1.6036    0.4837 C   0  0
    0.8575   -0.6818    0.2382 C   0  0
    2.1549   -1.1199    0.0028 C   0  0
    2.4419   -2.4700    0.0247 C   0  0
    1.4319   -3.3909    0.2700 C   0  0
    1.7227   -4.7617    0.2868 N   0  0
    0.8054   -5.6505   -0.1433 C   0  0
   -0.2330   -5.2608   -0.6344 O   0  0
    1.0697   -7.1285   -0.0140 C   0  0
   -0.1207   -7.9103   -0.5732 C   0  0
    0.1437   -9.3883   -0.4440 C   0  0
    1.1780   -9.7765    0.0452 O   0  0
    0.4921    1.0418    0.2184 S   0  0
    2.0899    1.8251   -0.1342 C   0  0
    1.9167    3.3214   -0.1795 C   0  0
    0.8230    3.8112    0.0077 O   0  0
    2.9770    4.1153   -0.4279 N   0  0
    2.8406    5.5071   -0.3603 C   0  0
    1.7992    6.0668    0.3619 C   0  0
    1.6702    7.4548    0.4301 C   0  0
    2.5861    8.2707   -0.2384 C   0  0
    3.6165    7.7041   -0.9591 C   0  0
    3.7473    6.3278   -1.0230 C   0  0
    5.0474    5.6235   -1.9326 Cl  0  0
    0.5663    8.0590    1.2030 C   0  0
   -0.2290    7.3478    1.7836 O   0  0
   -0.7700  -10.2735   -0.8723 O   0  5
    0.4414    9.3990    1.2641 O   0  5
   -0.6659   -3.6836    0.6931 H   0  0
   -1.1809   -1.2575    0.6657 H   0  0
    2.9532   -0.3910   -0.2010 H   0  0
    3.4708   -2.8164   -0.1522 H   0  0
    2.6375   -5.0899    0.6279 H   0  0
    1.9770   -7.3897   -0.5785 H   0  0
    1.2108   -7.3855    1.0462 H   0  0
   -0.2627   -7.6553   -1.6338 H   0  0
   -1.0283   -7.6500   -0.0088 H   0  0
    2.4669    1.4708   -1.1050 H   0  0
    2.8089    1.5635    0.6561 H   0  0
    3.8878    3.6981   -0.6675 H   0  0
    1.0764    5.4193    0.8799 H   0  0
    2.4855    9.3650   -0.1900 H   0  0
    4.3367    8.3482   -1.4848 H   0  0
  1  6  2  0
  1  2  1  0
  2  3  2  0
  3  4  1  0
  3 14  1  0
  4  5  2  0
  5  6  1  0
  6  7  1  0
  7  8  1  0
  8  9  2  0
  8 10  1  0
 10 11  1  0
 11 12  1  0
 12 13  2  0
 12 28  1  0
 14 15  1  0
 15 16  1  0
 16 17  2  0
 16 18  1  0
 18 19  1  0
 19 24  2  0
 19 20  1  0
 20 21  2  0
 21 22  1  0
 21 26  1  0
 22 23  2  0
 23 24  1  0
 24 25  1  0
 26 27  2  0
 26 29  1  0
  1 30  1  0
  2 31  1  0
  4 32  1  0
  5 33  1  0
  7 34  1  0
 10 35  1  0
 10 36  1  0
 11 37  1  0
 11 38  1  0
 15 39  1  0
 15 40  1  0
 18 41  1  0
 20 42  1  0
 22 43  1  0
 23 44  1  0
M  CHG  2  28  -1  29  -1
M  END
> <Name>
ZINC17100805

> <reference>
BDB50085459

> <quality>
0.781

> <status>
decoy

$$$$
ZINC29666965
  SciTegic06061311263D

 48 50  0  0  0  0            999 V2000
   10.6620   -9.6702   -1.3112 C   0  0
    9.9708   -8.4432   -1.3001 C   0  0
    8.6812   -8.7228   -0.9599 C   0  0
    8.5758  -10.0540   -0.7781 O   0  0
    9.7712  -10.6292   -0.9897 C   0  0
    7.5925   -7.7431   -0.8215 C   0  0
    7.7223   -6.4380   -0.7240 N   0  0
    6.5649   -5.8888   -0.6225 N   0  0
    5.6251   -6.8070   -0.6391 C   0  0
    6.2437   -8.0187   -0.7700 N   0  0
    5.6057   -9.3356   -0.8407 C   0  0
    5.3058   -9.6792   -2.3011 C   0  0
    4.6495  -11.0338   -2.3739 C   0  0
    4.4420  -11.6625   -1.3577 O   0  0
    4.2930  -11.5467   -3.5682 N   0  0
    3.8894   -6.5274   -0.5219 S   0  0
    3.8707   -4.7234   -0.3762 C   0  0
    2.4252   -4.2361   -0.2582 C   0  0
    2.4096   -2.7341   -0.1370 C   0  0
    3.4521   -2.1143   -0.1442 O   0  0
    1.2373   -2.0795   -0.0205 N   0  0
    1.2143   -0.6805   -0.0190 C   0  0
    2.1369    0.0314   -0.7743 C   0  0
    2.1113    1.4123   -0.7711 C   0  0
    1.1682    2.0860   -0.0168 C   0  0
    0.2481    1.3801    0.7364 C   0  0
    0.2684   -0.0009    0.7374 C   0  0
    1.1438    3.5660   -0.0153 N   0  0
    1.9539    4.1891   -0.6779 O   0  0
    0.3137    4.1607    0.6486 O   0  0
   11.7279   -9.8180   -1.5393 H   0  0
   10.3906   -7.4512   -1.5229 H   0  0
    9.9873  -11.7050   -0.9132 H   0  0
    6.2812  -10.0937   -0.4175 H   0  0
    4.6666   -9.3206   -0.2681 H   0  0
    6.2440   -9.6958   -2.8751 H   0  0
    4.6300   -8.9217   -2.7248 H   0  0
    4.4691  -11.0128   -4.4312 H   0  0
    3.8444  -12.4726   -3.6179 H   0  0
    4.4330   -4.4220    0.5199 H   0  0
    4.3355   -4.2776   -1.2680 H   0  0
    1.9591   -4.6800    0.6338 H   0  0
    1.8624   -4.5370   -1.1542 H   0  0
    0.3583   -2.6091    0.0674 H   0  0
    2.8873   -0.5040   -1.3745 H   0  0
    2.8418    1.9768   -1.3692 H   0  0
   -0.5008    1.9190    1.3354 H   0  0
   -0.4638   -0.5619    1.3367 H   0  0
  1  5  2  0
  1  2  1  0
  2  3  2  0
  3  4  1  0
  3  6  1  0
  4  5  1  0
  6 10  1  0
  6  7  2  0
  7  8  1  0
  8  9  2  0
  9 10  1  0
  9 16  1  0
 10 11  1  0
 11 12  1  0
 12 13  1  0
 13 14  2  0
 13 15  1  0
 16 17  1  0
 17 18  1  0
 18 19  1  0
 19 20  2  0
 19 21  1  0
 21 22  1  0
 22 27  2  0
 22 23  1  0
 23 24  2  0
 24 25  1  0
 25 26  2  0
 25 28  1  0
 26 27  1  0
 28 29  2  0
 28 30  2  0
  1 31  1  0
  2 32  1  0
  5 33  1  0
 11 34  1  0
 11 35  1  0
 12 36  1  0
 12 37  1  0
 15 38  1  0
 15 39  1  0
 17 40  1  0
 17 41  1  0
 18 42  1  0
 18 43  1  0
 21 44  1  0
 23 45  1  0
 24 46  1  0
 26 47  1  0
 27 48  1  0
M  END
> <Name>
ZINC29666965

> <reference>
BDB50085459

> <quality>
0.780

> <status>
decoy

$$$$
ZINC11075972
  SciTegic06061311263D

 60 62  0  0  0  0            999 V2000
   -2.0327  -12.6609   -5.9124 C   0  0
   -3.4746  -12.1545   -5.8391 C   0  0
   -3.5751  -11.1255   -4.8196 O   0  0
   -4.7882  -10.5713   -4.6271 C   0  0
   -5.7364  -10.9380   -5.2931 O   0  0
   -4.9651   -9.5213   -3.6097 C   0  0
   -4.8320   -8.1305   -3.8093 C   0  0
   -5.0808   -7.5277   -2.5952 C   0  0
   -5.3668   -8.5176   -1.6771 N   0  0
   -5.2987   -9.7135   -2.2802 C   0  0
   -5.5453  -11.0456   -1.6200 C   0  0
   -5.0538   -6.1362   -2.3365 C   0  0
   -4.7880   -5.3578   -3.2296 O   0  0
   -5.3549   -5.6211   -0.9527 C   0  0
   -5.7768   -3.6014    0.3153 C   0  0
   -5.7370   -2.0727    0.2518 C   0  0
   -3.8419   -2.1845   -1.2499 C   0  0
   -3.8818   -3.7132   -1.1864 C   0  0
   -4.2639   -0.1648    0.0181 C   0  0
   -2.8143    0.2471    0.0146 C   0  0
   -1.9439   -0.5974    0.0065 O   0  0
   -2.4851    1.5540    0.0204 N   0  0
   -1.1432    1.9353    0.0171 C   0  0
   -0.0126    1.0758    0.0080 C   0  0
    1.0414    1.9233    0.0024 C   0  0
    0.5351    3.1648    0.0140 O   0  0
   -0.6740    3.1554    0.0255 N   0  0
    2.5003    1.5459   -0.0140 C   0  0
   -4.4821   -7.4378   -5.1012 C   0  0
   -5.2781   -4.1446   -0.9658 N   0  0
   -4.3405   -1.6413    0.0310 N   0  0
   -1.7406  -13.0808   -4.9386 H   0  0
   -1.3625  -11.8266   -6.1672 H   0  0
   -1.9559  -13.4405   -6.6846 H   0  0
   -3.7658  -11.7345   -6.8132 H   0  0
   -4.1448  -12.9887   -5.5844 H   0  0
   -5.5964   -8.3624   -0.6851 H   0  0
   -4.6226  -11.6005   -1.8450 H   0  0
   -6.3254  -11.4891   -2.2562 H   0  0
   -5.8018  -11.0202   -0.5506 H   0  0
   -4.6176   -6.0212   -0.2412 H   0  0
   -6.3666   -5.9341   -0.6552 H   0  0
   -5.1366   -3.9527    1.1380 H   0  0
   -6.8113   -3.9374    0.4793 H   0  0
   -6.1057   -1.6540    1.1998 H   0  0
   -6.3662   -1.7221   -0.5796 H   0  0
   -2.8070   -1.8495   -1.4136 H   0  0
   -4.4815   -1.8322   -2.0725 H   0  0
   -3.2527   -4.0649   -0.3554 H   0  0
   -3.5131   -4.1310   -2.1348 H   0  0
   -4.7597    0.2211   -0.8848 H   0  0
   -4.7588    0.2370    0.9145 H   0  0
   -3.2243    2.2713    0.0273 H   0  0
    0.0024   -0.0241    0.0060 H   0  0
    2.5637    0.8908   -0.8954 H   0  0
    2.5809    0.8810    0.8586 H   0  0
    3.2235    2.3748   -0.0165 H   0  0
   -5.2444   -7.8320   -5.7893 H   0  0
   -3.5437   -7.9367   -5.3848 H   0  0
   -4.4204   -6.3398   -5.0766 H   0  0
  1  2  1  0
  2  3  1  0
  3  4  1  0
  4  5  2  0
  4  6  1  0
  6 10  2  0
  6  7  1  0
  7  8  2  0
  7 29  1  0
  8  9  1  0
  8 12  1  0
  9 10  1  0
 10 11  1  0
 12 13  2  0
 12 14  1  0
 14 30  1  0
 15 16  1  0
 15 30  1  0
 16 31  1  0
 17 18  1  0
 17 31  1  0
 18 30  1  0
 19 20  1  0
 19 31  1  0
 20 21  2  0
 20 22  1  0
 22 23  1  0
 23 27  2  0
 23 24  1  0
 24 25  2  0
 25 26  1  0
 25 28  1  0
 26 27  1  0
  1 32  1  0
  1 33  1  0
  1 34  1  0
  2 35  1  0
  2 36  1  0
  9 37  1  0
 11 38  1  0
 11 39  1  0
 11 40  1  0
 14 41  1  0
 14 42  1  0
 15 43  1  0
 15 44  1  0
 16 45  1  0
 16 46  1  0
 17 47  1  0
 17 48  1  0
 18 49  1  0
 18 50  1  0
 19 51  1  0
 19 52  1  0
 22 53  1  0
 24 54  1  0
 28 55  1  0
 28 56  1  0
 28 57  1  0
 29 58  1  0
 29 59  1  0
 29 60  1  0
M  END
> <Name>
ZINC11075972

> <reference>
BDB50085459

> <quality>
0.779

> <status>
decoy

$$$$
ZINC13803331
  SciTegic06061311263D

 46 49  0  0  0  0            999 V2000
   -0.2097    7.8647    0.3498 C   0  0
    1.0267    7.2313    0.6844 O   0  0
    1.0235    5.8738    0.7631 C   0  0
   -0.1326    5.1861    0.5252 C   0  0
   -0.1372    3.7886    0.6063 C   0  0
    1.0547    3.0960    0.9341 C   0  0
    2.2282    3.8209    1.1741 C   0  0
    2.2064    5.1955    1.0879 C   0  0
    3.3436    5.9014    1.3202 O   0  0
    4.5164    5.1531    1.6467 C   0  0
    5.6870    6.1122    1.8721 C   0  0
    6.8894    5.3450    2.2068 N   0  0
    7.3013    4.9873    3.4622 C   0  0
    8.4451    4.2922    3.3137 C   0  0
    8.7289    4.2352    2.0040 N   0  0
    7.8014    4.8637    1.3349 C   0  0
    1.0230    1.7559    1.0049 N   0  0
   -0.0917    1.1039    0.7744 C   0  0
   -1.2268    1.7075    0.4599 N   0  0
   -1.3073    3.0287    0.3688 C   0  0
   -2.4989    3.6452    0.0450 N   0  0
   -3.6734    2.8901   -0.0535 C   0  0
   -3.7435    1.6333    0.5321 C   0  0
   -4.9038    0.8902    0.4340 C   0  0
   -5.9970    1.3968   -0.2468 C   0  0
   -5.9315    2.6488   -0.8324 C   0  0
   -4.7745    3.3998   -0.7331 C   0  0
   -4.7122    4.6246   -1.3000 F   0  0
   -7.4532    0.4594   -0.3669 Cl  0  0
   -0.9374    7.5432    1.1095 H   0  0
   -0.5220    7.4422   -0.6166 H   0  0
   -0.1279    8.9608    0.3053 H   0  0
   -1.0556    5.7279    0.2711 H   0  0
    3.1608    3.2966    1.4296 H   0  0
    4.3374    4.5721    2.5634 H   0  0
    4.7580    4.4687    0.8201 H   0  0
    5.4476    6.7967    2.6993 H   0  0
    5.8668    6.6933    0.9556 H   0  0
    6.7953    5.2224    4.4102 H   0  0
    9.0420    3.8489    4.1244 H   0  0
    7.7680    4.9819    0.2418 H   0  0
   -0.0826    0.0063    0.8457 H   0  0
   -2.5239    4.6609   -0.1242 H   0  0
   -2.8755    1.2295    1.0739 H   0  0
   -4.9589   -0.1058    0.8977 H   0  0
   -6.8002    3.0469   -1.3772 H   0  0
  1  2  1  0
  2  3  1  0
  3  8  2  0
  3  4  1  0
  4  5  2  0
  5 20  1  0
  5  6  1  0
  6  7  2  0
  6 17  1  0
  7  8  1  0
  8  9  1  0
  9 10  1  0
 10 11  1  0
 11 12  1  0
 12 16  1  0
 12 13  1  0
 13 14  2  0
 14 15  1  0
 15 16  2  0
 17 18  2  0
 18 19  1  0
 19 20  2  0
 20 21  1  0
 21 22  1  0
 22 27  2  0
 22 23  1  0
 23 24  2  0
 24 25  1  0
 25 26  2  0
 25 29  1  0
 26 27  1  0
 27 28  1  0
  1 30  1  0
  1 31  1  0
  1 32  1  0
  4 33  1  0
  7 34  1  0
 10 35  1  0
 10 36  1  0
 11 37  1  0
 11 38  1  0
 13 39  1  0
 14 40  1  0
 16 41  1  0
 18 42  1  0
 21 43  1  0
 23 44  1  0
 24 45  1  0
 26 46  1  0
M  END
> <Name>
ZINC13803331

> <reference>
BDB50209829

> <quality>
0.855

> <status>
decoy

$$$$
ZINC20538037
  SciTegic06061311263D

 47 50  0  0  1  0            999 V2000
   -2.6047    4.1637   -1.9010 C   0  0
   -1.6740    5.1493   -1.3351 N   0  0
   -1.2994    4.7910    0.0394 C   0  0
   -0.5025    3.5120    0.0257 C   0  0
    0.8557    3.4402    0.0124 N   0  0
    1.1963    2.1017    0.0019 C   0  0
    2.4012    1.4124   -0.0133 C   0  0
    2.4029    0.0343   -0.0207 C   0  0
    1.2065   -0.6711   -0.0131 C   0  0
    0.0021   -0.0041    0.0020 C   0  0
   -0.0169    1.3934    0.0097 C   0  0
   -1.0136    2.3155    0.0188 N   0  0
    1.2298   -2.4069   -0.0232 Cl  0  0
   -2.2427    6.5026   -1.3899 C   0  0
   -2.3860    6.9294   -2.8281 C   0  0
   -3.4307    6.7407   -3.5951 N   0  0
   -3.1075    7.2858   -4.7897 C   0  0
   -1.8974    7.7688   -4.6788 N   0  0
   -1.4730    7.5768   -3.5590 O   0  0
   -3.9655    7.3281   -5.9998 C   0  0
   -5.2400    6.7631   -5.9701 C   0  0
   -6.0392    6.8059   -7.0909 C   0  0
   -5.5682    7.4059   -8.2613 C   0  0
   -4.2890    7.9669   -8.2912 C   0  0
   -3.4943    7.9277   -7.1672 C   0  0
   -6.4215    7.4467   -9.4661 C   0  0
   -6.0112    7.9682  -10.4836 O   0  0
   -7.6549    6.9055   -9.4366 O   0  0
   -8.4377    6.9820  -10.6571 C   0  0
   -3.5068    4.1251   -1.2727 H   0  0
   -2.1213    3.1756   -1.8978 H   0  0
   -2.8762    4.4445   -2.9293 H   0  0
   -0.6909    5.5969    0.4757 H   0  0
   -2.2079    4.6496    0.6432 H   0  0
    1.5091    4.2364    0.0105 H   0  0
    3.3524    1.9649   -0.0194 H   0  0
    3.3583   -0.5107   -0.0327 H   0  0
   -0.9417   -0.5690    0.0080 H   0  0
   -3.2311    6.5050   -0.9071 H   0  0
   -1.5765    7.2030   -0.8650 H   0  0
   -5.6072    6.2830   -5.0511 H   0  0
   -7.0479    6.3679   -7.0645 H   0  0
   -3.9168    8.4397   -9.2121 H   0  0
   -2.4872    8.3696   -7.1903 H   0  0
   -7.8410    6.4899  -11.4393 H   0  0
   -8.5128    8.0497  -10.9107 H   0  0
   -9.4303    6.5194  -10.5536 H   0  0
  1  2  1  0
  2  3  1  0
  2 14  1  0
  3  4  1  0
  4 12  2  0
  4  5  1  0
  5  6  1  0
  6 11  1  0
  6  7  2  0
  7  8  1  0
  8  9  2  0
  9 10  1  0
  9 13  1  0
 10 11  2  0
 11 12  1  0
 14 15  1  0
 15 19  1  0
 15 16  2  0
 16 17  1  0
 17 18  2  0
 17 20  1  0
 18 19  1  0
 20 25  2  0
 20 21  1  0
 21 22  2  0
 22 23  1  0
 23 24  2  0
 23 26  1  0
 24 25  1  0
 26 27  2  0
 26 28  1  0
 28 29  1  0
  1 30  1  0
  1 31  1  0
  1 32  1  0
  3 33  1  0
  3 34  1  0
  5 35  1  0
  7 36  1  0
  8 37  1  0
 10 38  1  0
 14 39  1  0
 14 40  1  0
 21 41  1  0
 22 42  1  0
 24 43  1  0
 25 44  1  0
 29 45  1  0
 29 46  1  0
 29 47  1  0
M  END
> <Name>
ZINC20538037

> <reference>
BDB50209829

> <quality>
0.852

> <status>
decoy

$$$$
ZINC12619700
  SciTegic06061311263D

 54 57  0  0  0  0            999 V2000
    1.7658    8.7603    0.4271 C   0  0
    0.7770    7.6887    0.5687 N   0  0
   -0.5468    7.8599    0.8100 C   0  0
   -1.1444    6.6434    0.8772 C   0  0
   -0.1665    5.6708    0.6660 C   0  0
    1.0363    6.3374    0.4789 C   0  0
    2.2899    5.7432    0.2360 C   0  0
    2.3794    4.3778    0.0234 C   0  0
    3.6996    3.7302   -0.0578 C   0  0
    3.9110    2.3802   -0.1664 N   0  0
    5.2786    2.1838   -0.2149 C   0  0
    6.0863    1.0605   -0.3211 C   0  0
    7.4580    1.2042   -0.3441 C   0  0
    8.0347    2.4636   -0.2622 C   0  0
    7.2561    3.5812   -0.1575 C   0  0
    5.8628    3.4601   -0.1314 C   0  0
    4.8524    4.3591   -0.0427 N   0  0
    1.1600    3.5769   -0.1209 C   0  0
    0.7671    2.8933    0.8071 O   0  0
    0.4082    3.5991   -1.3914 C   0  0
   -0.8108    2.9239   -1.4953 C   0  0
   -1.5128    2.9467   -2.6858 C   0  0
   -1.0065    3.6421   -3.7808 C   0  0
    0.2080    4.3158   -3.6800 C   0  0
    0.9142    4.2958   -2.4920 C   0  0
    0.6999    4.9937   -4.7515 O   0  0
    1.8893    5.7585   -4.5450 C   0  0
   -1.6987    3.6630   -4.9502 O   0  0
   -2.6428    4.7211   -5.1264 C   0  0
   -2.6993    2.2898   -2.7875 O   0  0
   -3.1593    1.5974   -1.6251 C   0  0
    2.2172    8.5423   -0.5520 H   0  0
    2.5249    8.4866    1.1747 H   0  0
    1.3929    9.7903    0.5268 H   0  0
   -1.0540    8.8284    0.9316 H   0  0
   -2.2121    6.4569    1.0651 H   0  0
   -0.3199    4.5817    0.6507 H   0  0
    3.1979    6.3637    0.2152 H   0  0
    3.1866    1.6490   -0.2047 H   0  0
    5.6346    0.0597   -0.3867 H   0  0
    8.0991    0.3143   -0.4279 H   0  0
    9.1300    2.5631   -0.2818 H   0  0
    7.7240    4.5747   -0.0938 H   0  0
   -1.2114    2.3747   -0.6305 H   0  0
    1.8737    4.8279   -2.4130 H   0  0
    2.6496    5.0543   -4.1761 H   0  0
    1.6644    6.4673   -3.7345 H   0  0
    2.2251    6.2771   -5.4551 H   0  0
   -2.0795    5.6596   -5.0170 H   0  0
   -3.3473    4.6503   -4.2846 H   0  0
   -3.1623    4.6709   -6.0947 H   0  0
   -3.2232    2.3477   -0.8233 H   0  0
   -2.3668    0.8834   -1.3566 H   0  0
   -4.1231    1.0918   -1.7846 H   0  0
  1  2  1  0
  2  6  1  0
  2  3  1  0
  3  4  2  0
  4  5  1  0
  5  6  2  0
  6  7  1  0
  7  8  2  0
  8  9  1  0
  8 18  1  0
  9 17  2  0
  9 10  1  0
 10 11  1  0
 11 16  1  0
 11 12  2  0
 12 13  1  0
 13 14  2  0
 14 15  1  0
 15 16  2  0
 16 17  1  0
 18 19  2  0
 18 20  1  0
 20 25  2  0
 20 21  1  0
 21 22  2  0
 22 23  1  0
 22 30  1  0
 23 24  2  0
 23 28  1  0
 24 25  1  0
 24 26  1  0
 26 27  1  0
 28 29  1  0
 30 31  1  0
  1 32  1  0
  1 33  1  0
  1 34  1  0
  3 35  1  0
  4 36  1  0
  5 37  1  0
  7 38  1  0
 10 39  1  0
 12 40  1  0
 13 41  1  0
 14 42  1  0
 15 43  1  0
 21 44  1  0
 25 45  1  0
 27 46  1  0
 27 47  1  0
 27 48  1  0
 29 49  1  0
 29 50  1  0
 29 51  1  0
 31 52  1  0
 31 53  1  0
 31 54  1  0
M  END
> <Name>
ZINC12619700

> <reference>
BDB50209829

> <quality>
0.834

> <status>
decoy

$$$$
ZINC24059967
  SciTegic06061311263D

 52 55  0  0  1  0            999 V2000
   -4.5746   -2.8864    1.4527 C   0  0
   -4.4205   -2.3956    0.0118 C   0  0
   -3.9443   -0.9658    0.0164 C   0  0
   -2.6826   -0.5109    0.0125 C   0  0
   -2.4454    0.9221    0.0128 C   0  0
   -1.2182    1.6411    0.0167 C   0  0
   -1.2457    2.9638    0.0241 N   0  0
   -2.3782    3.6441    0.0332 C   0  0
   -3.5473    3.0338    0.0354 N   0  0
   -3.6124    1.7169    0.0286 C   0  0
   -4.9241    0.5238    0.0289 S   0  0
   -0.0111    0.9658    0.0074 N   0  0
    1.2475    1.7155   -0.0006 C   0  0  1  0  0  0
    2.3437    0.8631    0.5848 C   0  0
    2.4020   -0.4852    0.2880 C   0  0
    3.4137   -1.2711    0.8214 C   0  0
    4.3596   -0.7049    1.6620 C   0  0
    4.2957    0.6469    1.9628 C   0  0
    3.2856    1.4299    1.4220 C   0  0
    5.2217    1.2049    2.7861 O   0  0
    6.2328    0.3394    3.3063 C   0  0
    3.4740   -2.5959    0.5243 O   0  0
    4.5388   -3.3450    1.1133 C   0  0
    1.6022    2.0866   -1.4175 C   0  0
    1.5415    1.2909   -2.4501 N   0  0
    1.9300    1.9586   -3.5466 C   0  0
    2.2433    3.2158   -3.1795 C   0  0
    2.0300    3.2992   -1.8300 N   0  0
    2.2318    4.4820   -0.9895 C   0  0
   -5.3084   -2.2580    1.9787 H   0  0
   -3.6045   -2.8255    1.9677 H   0  0
   -4.9222   -3.9300    1.4501 H   0  0
   -3.6864   -3.0243   -0.5133 H   0  0
   -5.3906   -2.4565   -0.5032 H   0  0
   -1.8373   -1.2148    0.0091 H   0  0
   -2.3453    4.7436    0.0391 H   0  0
    0.0029   -0.0641    0.0061 H   0  0
    1.1335    2.6298    0.6003 H   0  0
    1.6458   -0.9359   -0.3716 H   0  0
    5.1595   -1.3272    2.0896 H   0  0
    3.2347    2.5026    1.6600 H   0  0
    6.7369   -0.1055    2.4357 H   0  0
    5.7063   -0.4660    3.8393 H   0  0
    6.9439    0.8622    3.9628 H   0  0
    4.4416   -3.2174    2.2015 H   0  0
    5.4723   -2.8558    0.7982 H   0  0
    4.5212   -4.4069    0.8268 H   0  0
    1.9833    1.5508   -4.5668 H   0  0
    2.6018    4.0210   -3.8377 H   0  0
    2.9134    4.1061   -0.2122 H   0  0
    1.2531    4.5940   -0.5001 H   0  0
    2.5869    5.3926   -1.4943 H   0  0
  1  2  1  0
  2  3  1  0
  3 11  1  0
  3  4  2  0
  4  5  1  0
  5 10  1  0
  5  6  2  0
  6  7  1  0
  6 12  1  0
  7  8  2  0
  8  9  1  0
  9 10  2  0
 10 11  1  0
 12 13  1  0
 13 14  1  0
 13 24  1  0
 14 19  2  0
 14 15  1  0
 15 16  2  0
 16 17  1  0
 16 22  1  0
 17 18  2  0
 18 19  1  0
 18 20  1  0
 20 21  1  0
 22 23  1  0
 24 28  1  0
 24 25  2  0
 25 26  1  0
 26 27  2  0
 27 28  1  0
 28 29  1  0
  1 30  1  0
  1 31  1  0
  1 32  1  0
  2 33  1  0
  2 34  1  0
  4 35  1  0
  8 36  1  0
 12 37  1  0
 13 38  1  0
 15 39  1  0
 17 40  1  0
 19 41  1  0
 21 42  1  0
 21 43  1  0
 21 44  1  0
 23 45  1  0
 23 46  1  0
 23 47  1  0
 26 48  1  0
 27 49  1  0
 29 50  1  0
 29 51  1  0
 29 52  1  0
M  END
> <Name>
ZINC24059967

> <reference>
BDB50209829

> <quality>
0.828

> <status>
decoy

$$$$
ZINC21487990
  SciTegic06061311263D

 46 49  0  0  0  0            999 V2000
   -3.5467   -1.3537    0.0712 C   0  0
   -2.4898   -0.4663    0.0665 C   0  0
   -1.1794   -0.9452    0.0461 C   0  0
   -0.9452   -2.3207    0.0423 C   0  0
   -2.0113   -3.1996    0.0530 C   0  0
   -3.3102   -2.7162    0.0674 C   0  0
   -1.7874   -4.5319    0.0498 F   0  0
   -0.0433    0.0013    0.0347 C   0  0
   -0.0526    1.3268    0.0360 N   0  0
    1.0640    2.0161    0.0242 C   0  0
    2.2595    1.3688    0.0102 C   0  0
    1.7128   -0.3340    0.0148 S   0  0
    1.0212    3.5225    0.0255 C   0  0
    0.1791    4.0021   -1.1286 C   0  0
   -0.3337    3.2027   -1.8755 O   0  0
   -0.0013    5.3174   -1.3267 O   0  0
   -0.8243    5.7069   -2.4577 C   0  0
   -0.9130    7.2100   -2.5205 C   0  0
   -0.3391    7.8863   -1.6933 O   0  0
   -1.6300    7.8026   -3.4957 N   0  0
   -1.8079    9.1863   -3.4881 C   0  0
   -1.7288    9.8921   -2.3059 C   0  0
   -1.8984   11.2726   -2.2919 C   0  0
   -2.1587   11.9624   -3.4369 C   0  0
   -2.2538   11.2816   -4.6624 C   0  0
   -2.0760    9.8763   -4.6884 C   0  0
   -2.1718    9.1986   -5.9159 C   0  0
   -2.4353    9.9317   -7.0389 C   0  0
   -2.5996   11.3113   -6.9450 C   0  0
   -2.5091   11.9402   -5.7981 N   0  0
   -4.5799   -0.9763    0.0780 H   0  0
   -2.6802    0.6170    0.0788 H   0  0
    0.0856   -2.7044    0.0308 H   0  0
   -4.1563   -3.4191    0.0758 H   0  0
    3.2802    1.7788   -0.0009 H   0  0
    2.0420    3.9195   -0.0765 H   0  0
    0.5829    3.8762    0.9704 H   0  0
   -1.8336    5.2854   -2.3406 H   0  0
   -0.3740    5.3276   -3.3869 H   0  0
   -2.0466    7.2339   -4.2466 H   0  0
   -1.5297    9.3582   -1.3650 H   0  0
   -1.8209   11.8168   -1.3391 H   0  0
   -2.2946   13.0534   -3.4023 H   0  0
   -2.0384    8.1081   -5.9713 H   0  0
   -2.5175    9.4326   -8.0157 H   0  0
   -2.8109   11.8887   -7.8571 H   0  0
  1  6  2  0
  1  2  1  0
  2  3  2  0
  3  4  1  0
  3  8  1  0
  4  5  2  0
  5  6  1  0
  5  7  1  0
  8 12  1  0
  8  9  2  0
  9 10  1  0
 10 11  2  0
 10 13  1  0
 11 12  1  0
 13 14  1  0
 14 15  2  0
 14 16  1  0
 16 17  1  0
 17 18  1  0
 18 19  2  0
 18 20  1  0
 20 21  1  0
 21 26  2  0
 21 22  1  0
 22 23  2  0
 23 24  1  0
 24 25  2  0
 25 30  1  0
 25 26  1  0
 26 27  1  0
 27 28  2  0
 28 29  1  0
 29 30  2  0
  1 31  1  0
  2 32  1  0
  4 33  1  0
  6 34  1  0
 11 35  1  0
 13 36  1  0
 13 37  1  0
 17 38  1  0
 17 39  1  0
 20 40  1  0
 22 41  1  0
 23 42  1  0
 24 43  1  0
 27 44  1  0
 28 45  1  0
 29 46  1  0
M  END
> <Name>
ZINC21487990

> <reference>
BDB50209829

> <quality>
0.824

> <status>
decoy

$$$$
ZINC01183176
  SciTegic06061311263D

 48 51  0  0  0  0            999 V2000
    3.4082    6.0038   -1.5965 C   0  0
    2.0550    5.3744   -1.2596 C   0  0
    2.0985    3.9735   -1.5386 O   0  0
    0.9683    3.2600   -1.2926 C   0  0
    0.9419    1.8949   -1.5413 C   0  0
   -0.2057    1.1698   -1.2921 C   0  0
   -1.3363    1.8077   -0.7977 C   0  0
   -1.3072    3.1729   -0.5431 C   0  0
   -0.1591    3.8969   -0.7931 C   0  0
   -2.5031    1.0734   -0.5500 N   0  0
   -3.5869    1.5924   -0.0881 N   0  0
   -4.5009    0.6415    0.0293 C   0  0
   -5.8383    0.5625    0.4559 C   0  0
   -6.4770   -0.6355    0.4410 C   0  0
   -5.8371   -1.8045    0.0090 C   0  0
   -4.5401   -1.7936   -0.4164 C   0  0
   -3.8260   -0.5841   -0.4245 C   0  0
   -2.6045   -0.1936   -0.7549 N   0  0
   -6.5439   -3.0120    0.0148 N   0  5
   -5.9662   -4.1286    0.5004 C   0  0
   -4.4236   -4.0429    1.2379 S   0  0
   -6.6029   -5.3127    0.4054 N   0  0
   -6.0252   -6.4293    0.8911 C   0  0
   -4.9289   -6.3684    1.4152 O   0  0
   -6.7175   -7.7168    0.7878 C   0  0
   -6.2482   -8.9190    1.2361 C   0  0
   -7.2298   -9.8743    0.9310 C   0  0
   -8.2426   -9.2223    0.3177 C   0  0
   -7.9327   -7.9218    0.2385 O   0  0
   -7.9104   -0.7094    0.9003 C   0  0
    3.6301    5.8497   -2.6628 H   0  0
    4.1943    5.5336   -0.9874 H   0  0
    3.3754    7.0822   -1.3820 H   0  0
    1.8341    5.5286   -0.1931 H   0  0
    1.2689    5.8446   -1.8687 H   0  0
    1.8358    1.3907   -1.9371 H   0  0
   -0.2250    0.0870   -1.4849 H   0  0
   -2.1990    3.6769   -0.1423 H   0  0
   -0.1376    4.9790   -0.5964 H   0  0
   -6.3639    1.4656    0.7996 H   0  0
   -4.0581   -2.7244   -0.7501 H   0  0
   -7.5310   -5.3643   -0.0384 H   0  0
   -5.2872   -9.1025    1.7388 H   0  0
   -7.1837  -10.9513    1.1498 H   0  0
   -9.1689   -9.6839   -0.0550 H   0  0
   -8.4585    0.0037    0.2670 H   0  0
   -7.9112   -0.3087    1.9247 H   0  0
   -8.3344   -1.7231    0.8492 H   0  0
  1  2  1  0
  2  3  1  0
  3  4  1  0
  4  9  2  0
  4  5  1  0
  5  6  2  0
  6  7  1  0
  7  8  2  0
  7 10  1  0
  8  9  1  0
 10 18  1  0
 10 11  1  0
 11 12  2  0
 12 17  1  0
 12 13  1  0
 13 14  2  0
 14 15  1  0
 14 30  1  0
 15 16  2  0
 15 19  1  0
 16 17  1  0
 17 18  2  0
 19 20  1  0
 20 21  2  0
 20 22  1  0
 22 23  1  0
 23 24  2  0
 23 25  1  0
 25 29  1  0
 25 26  2  0
 26 27  1  0
 27 28  2  0
 28 29  1  0
  1 31  1  0
  1 32  1  0
  1 33  1  0
  2 34  1  0
  2 35  1  0
  5 36  1  0
  6 37  1  0
  8 38  1  0
  9 39  1  0
 13 40  1  0
 16 41  1  0
 22 42  1  0
 26 43  1  0
 27 44  1  0
 28 45  1  0
 30 46  1  0
 30 47  1  0
 30 48  1  0
M  CHG  1  19  -1
M  END
> <Name>
ZINC01183176

> <reference>
BDB50209829

> <quality>
0.821

> <status>
decoy

$$$$
ZINC14067094
  SciTegic06061311263D

 47 49  0  0  0  0            999 V2000
   -4.0411    3.5410   -9.1167 C   0  0
   -2.7892    2.8382   -8.8251 N   0  0
   -1.8934    2.3442   -9.7467 C   0  0
   -0.8910    1.7773   -9.0541 C   0  0
   -1.1502    1.9181   -7.7432 N   0  0
   -2.2912    2.5492   -7.5918 C   0  0
   -3.0461    2.9592   -6.0534 S   0  0
   -1.8258    2.2665   -4.9100 C   0  0
   -2.2742    2.5059   -3.4913 C   0  0
   -3.3161    3.0874   -3.2746 O   0  0
   -1.5173    2.0736   -2.4633 N   0  0
   -1.9296    2.2937   -1.1588 C   0  0
   -1.2910    1.9264    0.0186 C   0  0
   -1.9493    2.2912    1.2588 C   0  0
   -3.1297    2.9524    1.1518 C   0  0
   -3.3648    3.0893   -0.6078 S   0  0
   -1.3616    1.9577    2.5784 C   0  0
   -0.9390    0.6562    2.8462 C   0  0
   -0.3887    0.3503    4.0733 C   0  0
   -0.2647    1.3341    5.0448 C   0  0
   -0.6889    2.6297    4.7831 C   0  0
   -1.2356    2.9434    3.5564 C   0  0
    0.2728    1.0280    6.2550 O   0  0
    0.6884   -0.3242    6.4570 C   0  0
   -0.0144    1.2123    0.0087 C   0  0
    0.0021   -0.0041    0.0020 O   0  0
    1.1445    1.9027    0.0013 O   0  0
    2.3728    1.1285   -0.0145 C   0  0
   -3.9238    4.4752   -8.5480 H   0  0
   -4.7799    2.9450   -8.5609 H   0  0
   -4.2914    3.6900  -10.1774 H   0  0
   -1.9815    2.4025  -10.8416 H   0  0
   -0.0089    1.2825   -9.4865 H   0  0
   -0.8522    2.7518   -5.0729 H   0  0
   -1.7305    1.1849   -5.0863 H   0  0
   -0.6324    1.5796   -2.6473 H   0  0
   -3.7837    3.3161    1.9580 H   0  0
   -1.0444   -0.1257    2.0797 H   0  0
   -0.0477   -0.6744    4.2824 H   0  0
   -0.5889    3.4070    5.5550 H   0  0
   -1.5719    3.9702    3.3498 H   0  0
    1.4192   -0.5447    5.6649 H   0  0
   -0.1990   -0.9500    6.2811 H   0  0
    1.1121   -0.4941    7.4578 H   0  0
    2.3234    0.4871   -0.9068 H   0  0
    2.3403    0.4777    0.8718 H   0  0
    3.2725    1.7613   -0.0197 H   0  0
  1  2  1  0
  2  6  1  0
  2  3  1  0
  3  4  2  0
  4  5  1  0
  5  6  2  0
  6  7  1  0
  7  8  1  0
  8  9  1  0
  9 10  2  0
  9 11  1  0
 11 12  1  0
 12 16  1  0
 12 13  2  0
 13 14  1  0
 13 25  1  0
 14 15  2  0
 14 17  1  0
 15 16  1  0
 17 22  2  0
 17 18  1  0
 18 19  2  0
 19 20  1  0
 20 21  2  0
 20 23  1  0
 21 22  1  0
 23 24  1  0
 25 26  2  0
 25 27  1  0
 27 28  1  0
  1 29  1  0
  1 30  1  0
  1 31  1  0
  3 32  1  0
  4 33  1  0
  8 34  1  0
  8 35  1  0
 11 36  1  0
 15 37  1  0
 18 38  1  0
 19 39  1  0
 21 40  1  0
 22 41  1  0
 24 42  1  0
 24 43  1  0
 24 44  1  0
 28 45  1  0
 28 46  1  0
 28 47  1  0
M  END
> <Name>
ZINC14067094

> <reference>
BDB50209829

> <quality>
0.816

> <status>
decoy

$$$$
ZINC24032340
  SciTegic06061311263D

 45 47  0  0  0  0            999 V2000
    3.9309   -1.7349   -0.5650 C   0  0
    4.3719   -0.3015   -0.7131 C   0  0
    3.4804    0.7315   -0.5583 C   0  0
    4.5484    2.1348   -0.8477 S   0  0
    6.0161    1.2492   -1.1249 C   0  0
    5.6193   -0.0044   -0.9934 N   0  0
    7.2810    1.7338   -1.4165 N   0  0
    8.3038    0.8768   -1.6063 C   0  0
    8.1163   -0.3225   -1.5217 O   0  0
    9.6415    1.3893   -1.9147 C   0  0
   10.6643    0.5323   -2.1046 C   0  0
   12.0084    1.0472   -2.4144 C   0  0
   12.2232    2.4258   -2.5176 C   0  0
   13.4811    2.9064   -2.8025 C   0  0
   14.5411    2.0175   -2.9992 C   0  0
   14.3264    0.6402   -2.9017 C   0  0
   13.0704    0.1580   -2.6116 C   0  0
   15.8897    2.5342   -3.3111 C   0  0
   16.8113    1.7618   -3.4826 O   0  0
   16.0971    3.8620   -3.4053 O   0  0
   17.4472    4.2979   -3.7145 C   0  0
    2.0435    0.6933   -0.2470 C   0  0
    1.1486   -0.0822   -0.8245 N   0  0
   -0.0546    0.1554   -0.2872 C   0  0
    0.0798    1.1073    0.6568 C   0  0
    1.4066    1.4562    0.6912 N   0  0
    2.0229    2.4565    1.5663 C   0  0  1  0  0  0
    1.2259    2.6370    2.7018 F   0  0
    3.2937    2.0179    1.9534 F   0  0
    4.5847   -2.1514    0.2154 H   0  0
    4.2112   -2.2152   -1.5140 H   0  0
    2.8627   -1.8522   -0.3300 H   0  0
    7.4397    2.7490   -1.4882 H   0  0
    9.8110    2.4735   -1.9912 H   0  0
   10.4948   -0.5519   -2.0281 H   0  0
   11.3871    3.1254   -2.3711 H   0  0
   13.6520    3.9906   -2.8754 H   0  0
   15.1615   -0.0588   -3.0568 H   0  0
   12.9016   -0.9263   -2.5348 H   0  0
   17.7178    3.8170   -4.6661 H   0  0
   18.0949    3.8814   -2.9290 H   0  0
   17.5357    5.3927   -3.7743 H   0  0
   -0.9941   -0.3425   -0.5689 H   0  0
   -0.7226    1.5259    1.2820 H   0  0
    2.1131    3.4105    1.0262 H   0  0
  1  2  1  0
  2  6  1  0
  2  3  2  0
  3  4  1  0
  3 22  1  0
  4  5  1  0
  5  6  2  0
  5  7  1  0
  7  8  1  0
  8  9  2  0
  8 10  1  0
 10 11  2  0
 11 12  1  0
 12 17  2  0
 12 13  1  0
 13 14  2  0
 14 15  1  0
 15 16  2  0
 15 18  1  0
 16 17  1  0
 18 19  2  0
 18 20  1  0
 20 21  1  0
 22 26  1  0
 22 23  2  0
 23 24  1  0
 24 25  2  0
 25 26  1  0
 26 27  1  0
 27 28  1  0
 27 29  1  0
  1 30  1  0
  1 31  1  0
  1 32  1  0
  7 33  1  0
 10 34  1  0
 11 35  1  0
 13 36  1  0
 14 37  1  0
 16 38  1  0
 17 39  1  0
 21 40  1  0
 21 41  1  0
 21 42  1  0
 24 43  1  0
 25 44  1  0
 27 45  1  0
M  END
> <Name>
ZINC24032340

> <reference>
BDB50209829

> <quality>
0.811

> <status>
decoy

$$$$
ZINC20395139
  SciTegic06061311263D

 58 61  0  0  1  0            999 V2000
   -6.3457    2.9831   -0.0610 C   0  0
   -4.8555    2.8332    0.2516 C   0  0
   -4.4226    1.3890   -0.0087 C   0  0  1  0  0  0
   -2.9272    1.2456    0.2890 C   0  0
   -2.5773   -0.2402    0.2509 C   0  0
   -3.5620   -1.1591    0.3428 C   0  0
   -2.7414   -2.7252    0.2567 S   0  0
   -1.0725   -2.1436    0.0975 C   0  0
   -1.2102   -0.7403    0.1167 C   0  0
    0.0021   -0.0041    0.0020 C   0  0
    1.1462   -0.6561   -0.1173 N   0  0
    1.2052   -1.9826   -0.1232 C   0  0
    0.1076   -2.7203   -0.0195 N   0  0
    2.7699   -2.7777   -0.2787 S   0  0
    2.2477   -4.5102   -0.2350 C   0  0
    3.4747   -5.4159   -0.3580 C   0  0
   -0.0167    1.3788    0.0096 N   0  0
    1.2182    2.1295   -0.2308 C   0  0
    0.9235    3.6295   -0.1687 C   0  0
    2.1618    4.3822   -0.4098 N   0  0
    3.1246    4.1762    0.6819 C   0  0
    4.4192    4.9282    0.3621 C   0  0
    4.1223    6.3120    0.1560 O   0  0
    3.1880    6.5492   -0.9005 C   0  0
    1.8810    5.8136   -0.5934 C   0  0
   -5.0257   -0.8774    0.4871 C   0  0
   -5.1775    0.5094    0.8290 O   0  0
   -4.6833    1.0406   -1.4755 C   0  0
   -6.9263    2.3055    0.5822 H   0  0
   -6.5272    2.7312   -1.1163 H   0  0
   -6.6576    4.0212    0.1259 H   0  0
   -4.2757    3.5109   -0.3922 H   0  0
   -4.6739    3.0851    1.3069 H   0  0
   -2.7069    1.6514    1.2874 H   0  0
   -2.3447    1.7821   -0.4744 H   0  0
    1.7354   -4.7149    0.7166 H   0  0
    1.5611   -4.7085   -1.0712 H   0  0
    4.1619   -5.2198    0.4782 H   0  0
    3.9881   -5.2125   -1.3093 H   0  0
    3.1581   -6.4690   -0.3315 H   0  0
   -0.8989    1.8809    0.1843 H   0  0
    1.9607    1.8701    0.5382 H   0  0
    1.6155    1.8755   -1.2246 H   0  0
    0.5272    3.8856    0.8249 H   0  0
    0.1813    3.8896   -0.9377 H   0  0
    3.3405    3.1025    0.7850 H   0  0
    2.7011    4.5588    1.6223 H   0  0
    5.1211    4.8249    1.2027 H   0  0
    4.8720    4.5108   -0.5493 H   0  0
    2.9910    7.6284   -0.9814 H   0  0
    3.6029    6.1784   -1.8494 H   0  0
    1.1803    5.9461   -1.4309 H   0  0
    1.4376    6.2229    0.3263 H   0  0
   -5.4474   -1.5040    1.2868 H   0  0
   -5.5379   -1.0824   -0.4646 H   0  0
   -4.1076    1.7174   -2.1239 H   0  0
   -5.7560    1.1461   -1.6953 H   0  0
   -4.3729    0.0025   -1.6655 H   0  0
  1  2  1  0
  2  3  1  0
  3 27  1  0
  3  4  1  0
  3 28  1  0
  4  5  1  0
  5  9  1  0
  5  6  2  0
  6  7  1  0
  6 26  1  0
  7  8  1  0
  8 13  2  0
  8  9  1  0
  9 10  2  0
 10 11  1  0
 10 17  1  0
 11 12  2  0
 12 13  1  0
 12 14  1  0
 14 15  1  0
 15 16  1  0
 17 18  1  0
 18 19  1  0
 19 20  1  0
 20 25  1  0
 20 21  1  0
 21 22  1  0
 22 23  1  0
 23 24  1  0
 24 25  1  0
 26 27  1  0
  1 29  1  0
  1 30  1  0
  1 31  1  0
  2 32  1  0
  2 33  1  0
  4 34  1  0
  4 35  1  0
 15 36  1  0
 15 37  1  0
 16 38  1  0
 16 39  1  0
 16 40  1  0
 17 41  1  0
 18 42  1  0
 18 43  1  0
 19 44  1  0
 19 45  1  0
 21 46  1  0
 21 47  1  0
 22 48  1  0
 22 49  1  0
 24 50  1  0
 24 51  1  0
 25 52  1  0
 25 53  1  0
 26 54  1  0
 26 55  1  0
 28 56  1  0
 28 57  1  0
 28 58  1  0
M  END
> <Name>
ZINC20395139

> <reference>
BDB50209829

> <quality>
0.806

> <status>
decoy

$$$$
ZINC11582764
  SciTegic06061311263D

 49 52  0  0  0  0            999 V2000
   -1.4910   -3.3779   -0.0032 C   0  0
   -0.6252   -2.1444   -0.0038 C   0  0
   -1.0843   -0.8244    0.0075 C   0  0
    0.0021   -0.0041    0.0020 C   0  0
    1.1098   -0.7942   -0.0183 N   0  0
    0.6835   -2.1285   -0.0156 N   0  0
    2.4403   -0.3517   -0.0353 C   0  0
    2.7802    0.8023   -0.7283 C   0  0
    4.0903    1.2393   -0.7394 C   0  0
    5.0664    0.5216   -0.0688 C   0  0
    4.7302   -0.6329    0.6182 C   0  0
    3.4204   -1.0702    0.6361 C   0  0
    6.3482    0.9479   -0.0852 F   0  0
   -0.0168    1.3903    0.0097 N   0  0
   -1.1931    2.0482    0.0188 C   0  0
   -2.2351    1.4276    0.0204 O   0  0
   -1.2135    3.5551    0.0271 C   0  0
   -2.5671    4.0130    0.0360 O   0  0
   -2.7620    5.3484    0.0442 C   0  0
   -1.8073    6.1026    0.0438 O   0  0
   -4.1198    5.8885    0.0536 C   0  0
   -4.4676    7.2331    0.0681 C   0  0
   -5.8811    7.2747    0.0692 C   0  0
   -6.3157    5.9987    0.0649 C   0  0
   -5.2631    5.1710    0.0556 O   0  0
   -3.5434    8.3910    0.0776 C   0  0
   -2.5018    8.4479    1.0033 C   0  0
   -1.6406    9.5260    1.0030 C   0  0
   -1.8159   10.5548    0.0948 C   0  0
   -2.8510   10.5069   -0.8218 C   0  0
   -3.7150    9.4312   -0.8355 C   0  0
   -1.1217   -3.9364    0.8695 H   0  0
   -1.1377   -3.9260   -0.8890 H   0  0
   -2.5770   -3.2034    0.0077 H   0  0
   -2.1368   -0.5050    0.0188 H   0  0
    2.0066    1.3682   -1.2681 H   0  0
    4.3586    2.1582   -1.2814 H   0  0
    5.5070   -1.2020    1.1500 H   0  0
    3.1538   -1.9872    1.1820 H   0  0
    0.8681    1.9174    0.0084 H   0  0
   -0.6963    3.9240    0.9251 H   0  0
   -0.7047    3.9348   -0.8712 H   0  0
   -6.5081    8.1785    0.0729 H   0  0
   -7.3704    5.6862    0.0685 H   0  0
   -2.3671    7.6351    1.7321 H   0  0
   -0.8130    9.5675    1.7264 H   0  0
   -1.1295   11.4143    0.1015 H   0  0
   -2.9855   11.3281   -1.5412 H   0  0
   -4.5374    9.3941   -1.5651 H   0  0
  1  2  1  0
  2  6  2  0
  2  3  1  0
  3  4  2  0
  4  5  1  0
  4 14  1  0
  5  6  1  0
  5  7  1  0
  7 12  2  0
  7  8  1  0
  8  9  2  0
  9 10  1  0
 10 11  2  0
 10 13  1  0
 11 12  1  0
 14 15  1  0
 15 16  2  0
 15 17  1  0
 17 18  1  0
 18 19  1  0
 19 20  2  0
 19 21  1  0
 21 25  1  0
 21 22  2  0
 22 23  1  0
 22 26  1  0
 23 24  2  0
 24 25  1  0
 26 31  2  0
 26 27  1  0
 27 28  2  0
 28 29  1  0
 29 30  2  0
 30 31  1  0
  1 32  1  0
  1 33  1  0
  1 34  1  0
  3 35  1  0
  8 36  1  0
  9 37  1  0
 11 38  1  0
 12 39  1  0
 14 40  1  0
 17 41  1  0
 17 42  1  0
 23 43  1  0
 24 44  1  0
 27 45  1  0
 28 46  1  0
 29 47  1  0
 30 48  1  0
 31 49  1  0
M  END
> <Name>
ZINC11582764

> <reference>
BDB50209829

> <quality>
0.798

> <status>
decoy

$$$$
ZINC18830429
  SciTegic06061311263D

 51 54  0  0  0  0            999 V2000
   -1.2015    9.0369   -1.8147 C   0  0
   -1.6750    7.7732   -2.1162 C   0  0
   -1.0186    6.6560   -1.6381 C   0  0
    0.1183    6.8028   -0.8543 C   0  0
    0.5885    8.0734   -0.5493 C   0  0
   -0.0696    9.1865   -1.0344 C   0  0
    0.7860    5.6718   -0.3675 N   0  0
    1.8925    5.6945    0.3980 C   0  0
    2.2451    4.3860    0.6700 C   0  0
    1.2497    3.5419   -0.0011 C   0  0
    0.4076    4.3480   -0.6077 N   0  0
    1.2062    2.0602   -0.0003 C   0  0
   -0.0185    1.3852    0.0066 C   0  0
   -0.0051    0.0014    0.0066 C   0  0
    1.2078   -0.6637   -0.0001 C   0  0
    2.3475    0.0002   -0.0069 N   0  0
    2.3852    1.3170   -0.0073 C   0  0
    3.3877    3.9313    1.4711 C   0  0
    4.2234    4.8346    2.0303 C   0  0
    5.3268    4.3954    2.8039 C   0  0
    5.5219    3.2043    2.9649 O   0  0
    6.1600    5.2961    3.3615 N   0  0
    7.1924    4.8669    4.2044 C   0  0
    7.5695    5.6437    5.2920 C   0  0
    8.5845    5.2174    6.1256 C   0  0
    9.2348    4.0189    5.8704 C   0  0
    8.8619    3.2447    4.7814 C   0  0
    7.8435    3.6671    3.9499 C   0  0
   10.2379    3.6025    6.6885 O   0  0
   10.5697    4.4491    7.7908 C   0  0
   11.6686    3.8439    8.5609 C   0  0
   12.5166    3.3769    9.1552 N   0  0
   -1.7263    9.9251   -2.1964 H   0  0
   -2.5754    7.6576   -2.7375 H   0  0
   -1.3960    5.6510   -1.8779 H   0  0
    1.4841    8.1932    0.0780 H   0  0
    0.3070   10.1931   -0.7999 H   0  0
    2.4219    6.5940    0.7453 H   0  0
   -0.9683    1.9400    0.0119 H   0  0
   -0.9489   -0.5636    0.0119 H   0  0
    1.2220   -1.7636    0.0002 H   0  0
    3.3558    1.8346   -0.0132 H   0  0
    3.5640    2.8553    1.6165 H   0  0
    4.0471    5.9106    1.8850 H   0  0
    6.0373    6.3002    3.1676 H   0  0
    7.0598    6.5983    5.4894 H   0  0
    8.8775    5.8283    6.9922 H   0  0
    9.3775    2.2941    4.5802 H   0  0
    7.5481    3.0533    3.0862 H   0  0
   10.8848    5.4338    7.4152 H   0  0
    9.6901    4.5687    8.4405 H   0  0
  1  6  2  0
  1  2  1  0
  2  3  2  0
  3  4  1  0
  4  5  2  0
  4  7  1  0
  5  6  1  0
  7 11  1  0
  7  8  1  0
  8  9  2  0
  9 10  1  0
  9 18  1  0
 10 11  2  0
 10 12  1  0
 12 17  2  0
 12 13  1  0
 13 14  2  0
 14 15  1  0
 15 16  2  0
 16 17  1  0
 18 19  2  0
 19 20  1  0
 20 21  2  0
 20 22  1  0
 22 23  1  0
 23 28  2  0
 23 24  1  0
 24 25  2  0
 25 26  1  0
 26 27  2  0
 26 29  1  0
 27 28  1  0
 29 30  1  0
 30 31  1  0
 31 32  3  0
  1 33  1  0
  2 34  1  0
  3 35  1  0
  5 36  1  0
  6 37  1  0
  8 38  1  0
 13 39  1  0
 14 40  1  0
 15 41  1  0
 17 42  1  0
 18 43  1  0
 19 44  1  0
 22 45  1  0
 24 46  1  0
 25 47  1  0
 27 48  1  0
 28 49  1  0
 30 50  1  0
 30 51  1  0
M  END
> <Name>
ZINC18830429

> <reference>
BDB50209829

> <quality>
0.795

> <status>
decoy

$$$$
ZINC29451783
  SciTegic06061311263D

 52 55  0  0  0  0            999 V2000
   -4.6763    1.9511   -9.5429 C   0  0
   -3.2362    2.1732   -9.9276 C   0  0
   -2.9001    3.2134  -10.7748 C   0  0
   -1.5801    3.4200  -11.1304 C   0  0
   -0.5928    2.5875  -10.6399 C   0  0
   -0.9271    1.5427   -9.7894 C   0  0
   -2.2543    1.3342   -9.4387 C   0  0
    0.0729    0.6960   -9.2900 N   0  0
    0.2568    0.3032   -7.9986 C   0  0
    1.3121   -0.4825   -7.9835 N   0  0
    1.7925   -0.6145   -9.1668 N   0  0
    1.1024    0.0691  -10.0138 N   0  0
   -0.7268    0.7652   -6.6116 S   0  0
    0.1343   -0.1383   -5.3008 C   0  0
   -0.5512    0.1143   -3.9827 C   0  0
   -1.5260    0.8344   -3.9343 O   0  0
   -0.0811   -0.4600   -2.8576 N   0  0
   -0.7475   -0.2144   -1.5763 C   0  0
   -0.0197   -0.9782   -0.4683 C   0  0
   -0.7052   -0.7255    0.8498 C   0  0
   -0.2536    0.2559    1.6776 C   0  0
   -0.8721    0.5059    2.9007 C   0  0
   -1.9483   -0.2257    3.3019 C   0  0
   -2.4415   -1.2459    2.4731 C   0  0
   -1.8170   -1.4987    1.2263 C   0  0
   -2.2868   -2.4650    0.4309 N   0  0
   -3.3238   -3.1883    0.7768 C   0  0
   -3.9871   -2.9880    1.9856 C   0  0
   -3.5516   -2.0250    2.8507 C   0  0
    0.8457    2.8131  -11.0284 C   0  0
   -4.6863    1.9789   -8.4433 H   0  0
   -4.8966    0.9164   -9.8442 H   0  0
   -5.3727    2.6766   -9.9886 H   0  0
   -3.6845    3.8777  -11.1665 H   0  0
   -1.3158    4.2481  -11.8045 H   0  0
   -2.5233    0.5016   -8.7721 H   0  0
    1.1778    0.2046   -5.2422 H   0  0
    0.1142   -1.2153   -5.5235 H   0  0
    0.7467   -1.0715   -2.8987 H   0  0
   -0.7273    0.8625   -1.3528 H   0  0
   -1.7910   -0.5577   -1.6327 H   0  0
    1.0239   -0.6354   -0.4096 H   0  0
   -0.0400   -2.0552   -0.6910 H   0  0
    0.6138    0.8615    1.3761 H   0  0
   -0.4860    1.3048    3.5509 H   0  0
   -2.4284   -0.0185    4.2697 H   0  0
   -3.6798   -3.9743    0.0946 H   0  0
   -4.8607   -3.6049    2.2430 H   0  0
   -4.0542   -1.8627    3.8156 H   0  0
    1.0621    3.8503  -10.7327 H   0  0
    0.8531    2.7803  -12.1279 H   0  0
    1.5461    2.0926  -10.5808 H   0  0
  1  2  1  0
  2  7  2  0
  2  3  1  0
  3  4  2  0
  4  5  1  0
  5  6  2  0
  5 30  1  0
  6  7  1  0
  6  8  1  0
  8 12  1  0
  8  9  1  0
  9 10  2  0
  9 13  1  0
 10 11  1  0
 11 12  2  0
 13 14  1  0
 14 15  1  0
 15 16  2  0
 15 17  1  0
 17 18  1  0
 18 19  1  0
 19 20  1  0
 20 25  2  0
 20 21  1  0
 21 22  2  0
 22 23  1  0
 23 24  2  0
 24 29  1  0
 24 25  1  0
 25 26  1  0
 26 27  2  0
 27 28  1  0
 28 29  2  0
  1 31  1  0
  1 32  1  0
  1 33  1  0
  3 34  1  0
  4 35  1  0
  7 36  1  0
 14 37  1  0
 14 38  1  0
 17 39  1  0
 18 40  1  0
 18 41  1  0
 19 42  1  0
 19 43  1  0
 21 44  1  0
 22 45  1  0
 23 46  1  0
 27 47  1  0
 28 48  1  0
 29 49  1  0
 30 50  1  0
 30 51  1  0
 30 52  1  0
M  END
> <Name>
ZINC29451783

> <reference>
BDB50209829

> <quality>
0.795

> <status>
decoy

$$$$
ZINC11140030
  SciTegic06061311263D

 48 50  0  0  1  0            999 V2000
   10.6336    5.6601   -0.8597 C   0  0
    9.1329    5.5221   -0.8604 C   0  0
    8.2137    6.5769   -0.8704 C   0  0
    6.9691    6.0459   -0.8742 C   0  0
    7.0988    4.6943   -0.8572 N   0  0
    8.4675    4.3955   -0.8525 N   0  0
    6.0518    3.7652   -0.8516 C   0  0
    6.2566    2.4788   -1.3507 C   0  0
    5.1924    1.5948   -1.3240 C   0  0
    3.9799    2.0458   -0.7989 C   0  0
    3.8775    3.2885   -0.3521 N   0  0
    4.8672    4.1054   -0.3727 N   0  0
    2.5879    0.9672   -0.7375 S   0  0
    1.2804    1.9802    0.0073 C   0  0  2  0  0  0
    1.6644    2.3313    1.4461 C   0  0
   -0.0143    1.2089    0.0069 C   0  0
    0.0023   -0.0038   -0.0084 O   0  0
   -1.1906    1.8667    0.0178 N   0  0
   -2.3926    1.1543   -0.0861 C   0  0
   -3.4689    1.7041   -0.7696 C   0  0
   -4.6515    0.9992   -0.8761 C   0  0
   -4.7682   -0.2530   -0.2906 C   0  0
   -3.6950   -0.8006    0.3969 C   0  0
   -2.5099   -0.0992    0.4993 C   0  0
   -5.9348   -0.9441   -0.3911 O   0  0
   -6.9984   -0.3201   -1.1133 C   0  0  1  0  0  0
   -7.3312    0.8919   -0.4989 F   0  0
   -6.5898   -0.0790   -2.4294 F   0  0
    5.6734    6.8153   -0.8903 C   0  0
   10.9347    5.0644   -1.7341 H   0  0
   10.9326    5.0780    0.0244 H   0  0
   11.0225    6.6890   -0.8672 H   0  0
    8.4595    7.6491   -0.8745 H   0  0
    7.2345    2.1763   -1.7533 H   0  0
    5.2984    0.5683   -1.7048 H   0  0
    1.1565    2.9050   -0.5752 H   0  0
    2.6092    2.8947    1.4476 H   0  0
    1.7883    1.4071    2.0297 H   0  0
    0.8719    2.9456    1.8984 H   0  0
   -1.2059    2.8931    0.1025 H   0  0
   -3.3795    2.7009   -1.2261 H   0  0
   -5.5013    1.4307   -1.4254 H   0  0
   -3.7880   -1.7937    0.8606 H   0  0
   -1.6590   -0.5335    1.0446 H   0  0
   -7.8767   -0.9823   -1.1175 H   0  0
    5.7900    7.4610   -1.7732 H   0  0
    5.7777    7.4772   -0.0179 H   0  0
    4.7499    6.2176   -0.8912 H   0  0
  1  2  1  0
  2  6  2  0
  2  3  1  0
  3  4  2  0
  4  5  1  0
  4 29  1  0
  5  6  1  0
  5  7  1  0
  7 12  2  0
  7  8  1  0
  8  9  2  0
  9 10  1  0
 10 11  2  0
 10 13  1  0
 11 12  1  0
 13 14  1  0
 14 15  1  0
 14 16  1  0
 16 17  2  0
 16 18  1  0
 18 19  1  0
 19 24  2  0
 19 20  1  0
 20 21  2  0
 21 22  1  0
 22 23  2  0
 22 25  1  0
 23 24  1  0
 25 26  1  0
 26 27  1  0
 26 28  1  0
  1 30  1  0
  1 31  1  0
  1 32  1  0
  3 33  1  0
  8 34  1  0
  9 35  1  0
 14 36  1  0
 15 37  1  0
 15 38  1  0
 15 39  1  0
 18 40  1  0
 20 41  1  0
 21 42  1  0
 23 43  1  0
 24 44  1  0
 26 45  1  0
 29 46  1  0
 29 47  1  0
 29 48  1  0
M  END
> <Name>
ZINC11140030

> <reference>
BDB50209829

> <quality>
0.792

> <status>
decoy

$$$$
ZINC31389834
  SciTegic06061311263D

 54 57  0  0  1  0            999 V2000
   -9.2456  -10.4714    6.9986 C   0  0
   -8.5947   -9.1817    7.5026 C   0  0
   -8.3516   -8.2920    6.3812 O   0  0
   -7.7784   -7.1037    6.6561 C   0  0
   -7.4896   -6.8189    7.8017 O   0  0
   -7.5020   -6.1503    5.5682 C   0  0
   -7.7807   -6.3397    4.1951 C   0  0
   -7.3969   -5.2706    3.5535 N   0  0
   -6.8527   -4.3626    4.4686 N   0  0
   -6.9226   -4.9030    5.6983 C   0  0
   -6.4550   -4.2655    6.9812 C   0  0
   -6.3288   -3.1005    4.1572 C   0  0
   -6.4903   -2.0428    5.0431 C   0  0
   -5.9743   -0.7984    4.7370 C   0  0
   -5.2908   -0.6032    3.5521 C   0  0
   -5.1305   -1.6554    2.6597 C   0  0
   -5.6482   -2.9064    2.9643 C   0  0
   -4.4428   -1.4557    1.4576 N   0  0
   -4.5173   -0.2663    0.8282 C   0  0
   -5.2547    0.5987    1.2514 O   0  0
   -3.6842   -0.0110   -0.4015 C   0  0  1  0  0  0
   -4.0508   -1.0264   -1.4856 C   0  0
   -3.9432    1.3442   -0.8940 N   0  0
   -5.1435    1.8386   -1.3009 C   0  0
   -5.0154    3.0813   -1.6645 N   0  0
   -3.7199    3.4651   -1.5296 C   0  0
   -3.0144    2.3564   -1.0314 C   0  0
   -1.6524    2.4584   -0.7851 C   0  0
   -0.9989    3.6452   -1.0423 C   0  0
   -1.6947    4.7376   -1.5395 C   0  0
   -3.0369    4.6572   -1.7826 C   0  0
   -8.5757  -10.9644    6.2788 H   0  0
  -10.2002  -10.2335    6.5065 H   0  0
   -9.4301  -11.1459    7.8477 H   0  0
   -9.2654   -8.6892    8.2220 H   0  0
   -7.6401   -9.4195    7.9947 H   0  0
   -8.2407   -7.2324    3.7463 H   0  0
   -5.7703   -5.0252    7.3863 H   0  0
   -7.3565   -4.3117    7.6098 H   0  0
   -6.0145   -3.2608    6.9002 H   0  0
   -7.0297   -2.1963    5.9894 H   0  0
   -6.1078    0.0387    5.4380 H   0  0
   -4.8732    0.3865    3.3153 H   0  0
   -5.5191   -3.7424    2.2611 H   0  0
   -3.8796   -2.2177    1.0537 H   0  0
   -2.6182   -0.1122   -0.1498 H   0  0
   -5.1166   -0.9258   -1.7383 H   0  0
   -3.8565   -2.0444   -1.1168 H   0  0
   -3.4431   -0.8406   -2.3835 H   0  0
   -6.0852    1.2705   -1.3198 H   0  0
   -1.0968    1.5967   -0.3866 H   0  0
    0.0815    3.7263   -0.8519 H   0  0
   -1.1605    5.6780   -1.7401 H   0  0
   -3.5787    5.5296   -2.1768 H   0  0
  1  2  1  0
  2  3  1  0
  3  4  1  0
  4  5  2  0
  4  6  1  0
  6 10  2  0
  6  7  1  0
  7  8  2  0
  8  9  1  0
  9 10  1  0
  9 12  1  0
 10 11  1  0
 12 17  2  0
 12 13  1  0
 13 14  2  0
 14 15  1  0
 15 16  2  0
 16 17  1  0
 16 18  1  0
 18 19  1  0
 19 20  2  0
 19 21  1  0
 21 22  1  0
 21 23  1  0
 23 27  1  0
 23 24  1  0
 24 25  2  0
 25 26  1  0
 26 31  2  0
 26 27  1  0
 27 28  2  0
 28 29  1  0
 29 30  2  0
 30 31  1  0
  1 32  1  0
  1 33  1  0
  1 34  1  0
  2 35  1  0
  2 36  1  0
  7 37  1  0
 11 38  1  0
 11 39  1  0
 11 40  1  0
 13 41  1  0
 14 42  1  0
 15 43  1  0
 17 44  1  0
 18 45  1  0
 21 46  1  0
 22 47  1  0
 22 48  1  0
 22 49  1  0
 24 50  1  0
 28 51  1  0
 29 52  1  0
 30 53  1  0
 31 54  1  0
M  END
> <Name>
ZINC31389834

> <reference>
BDB50209829

> <quality>
0.791

> <status>
decoy

$$$$
ZINC27820688
  SciTegic06061311263D

 44 47  0  0  0  0            999 V2000
    1.3211    5.7699    0.3287 C   0  0
    1.3540    4.4178    0.6138 C   0  0
    1.3384    3.5296   -0.4100 C   0  0
    1.2622    4.6064   -1.8319 S   0  0
    1.2635    6.1675   -0.9658 C   0  0
    1.3705    2.0237   -0.3606 C   0  0
   -0.0599    1.4852   -0.2890 C   0  0
   -0.0287    0.0213   -0.2410 N   0  0
   -1.2179   -0.6980   -0.1724 C   0  0
   -2.4411   -0.0267   -0.1435 C   0  0
   -3.5966   -0.7857   -0.0807 C   0  0
   -3.4663   -2.1740   -0.0389 C   0  0
   -2.2639   -2.7239   -0.0653 N   0  0
   -1.1918   -2.0212   -0.1289 N   0  0
   -4.6051   -2.9827    0.0303 N   0  0
   -5.8905   -2.5608    0.1840 C   0  0
   -6.6740   -3.6686    0.2004 C   0  0
   -5.8949   -4.7376    0.0613 N   0  0
   -4.6403   -4.3500   -0.0495 C   0  0
   -3.4771   -5.2336   -0.2247 C   0  0
   -2.3520   -4.7722   -0.1901 O   0  0
   -3.6753   -6.6812   -0.4425 C   0  0
   -4.9636   -7.1955   -0.6097 C   0  0
   -5.1415   -8.5465   -0.8188 C   0  0
   -4.0471   -9.3954   -0.8511 C   0  0
   -2.7675   -8.8925   -0.6803 C   0  0
   -2.5758   -7.5425   -0.4765 C   0  0
   -4.2800  -11.0966   -1.1071 Cl  0  0
    1.3414    6.5122    1.1403 H   0  0
    1.3923    4.0678    1.6559 H   0  0
    1.2270    7.1874   -1.3762 H   0  0
    1.8623    1.6374   -1.2655 H   0  0
    1.9295    1.6967    0.5285 H   0  0
   -0.5521    1.8708    0.6160 H   0  0
   -0.6202    1.8103   -1.1780 H   0  0
    0.8734   -0.4755   -0.2580 H   0  0
   -2.4854    1.0721   -0.1698 H   0  0
   -4.5877   -0.3088   -0.0642 H   0  0
   -6.2298   -1.5186    0.2773 H   0  0
   -7.7684   -3.6805    0.3102 H   0  0
   -5.8340   -6.5239   -0.5746 H   0  0
   -6.1545   -8.9513   -0.9603 H   0  0
   -1.9027   -9.5717   -0.7074 H   0  0
   -1.5594   -7.1444   -0.3410 H   0  0
  1  5  2  0
  1  2  1  0
  2  3  2  0
  3  4  1  0
  3  6  1  0
  4  5  1  0
  6  7  1  0
  7  8  1  0
  8  9  1  0
  9 14  2  0
  9 10  1  0
 10 11  2  0
 11 12  1  0
 12 13  2  0
 12 15  1  0
 13 14  1  0
 15 19  1  0
 15 16  1  0
 16 17  2  0
 17 18  1  0
 18 19  2  0
 19 20  1  0
 20 21  2  0
 20 22  1  0
 22 27  2  0
 22 23  1  0
 23 24  2  0
 24 25  1  0
 25 26  2  0
 25 28  1  0
 26 27  1  0
  1 29  1  0
  2 30  1  0
  5 31  1  0
  6 32  1  0
  6 33  1  0
  7 34  1  0
  7 35  1  0
  8 36  1  0
 10 37  1  0
 11 38  1  0
 16 39  1  0
 17 40  1  0
 23 41  1  0
 24 42  1  0
 26 43  1  0
 27 44  1  0
M  END
> <Name>
ZINC27820688

> <reference>
BDB50209829

> <quality>
0.783

> <status>
decoy

$$$$
ZINC30002310
  SciTegic06061311263D

 46 49  0  0  1  0            999 V2000
    1.5825    5.4427    2.0835 C   0  0
    0.3658    4.9680    1.4110 N   0  0
    0.6478    4.5854    0.0210 C   0  0
    1.5579    3.3844    0.0054 C   0  0
    2.9019    3.4079   -0.0073 C   0  0
    3.3473    2.1418   -0.0185 N   0  0
    2.3257    1.3343   -0.0131 C   0  0
    1.1577    2.0496    0.0020 N   0  0
   -0.0160    1.3280    0.0093 C   0  0
    0.0021   -0.0041    0.0020 C   0  0
    1.7545   -0.3489   -0.0166 S   0  0
    3.8928    4.8332   -0.0091 Cl  0  0
   -0.6985    5.9786    1.4733 C   0  0
   -1.1301    6.1660    2.9049 C   0  0
   -0.6030    5.5212    3.7866 O   0  0
   -2.1019    7.0502    3.2056 N   0  0
   -2.5000    7.2231    4.5261 C   0  0
   -2.0524    6.6229    5.6117 N   0  0
   -2.5449    6.9068    6.8016 C   0  0
   -3.5285    7.8353    6.8889 C   0  0
   -3.7090    8.2902    5.1703 S   0  0
   -4.2632    8.3467    8.1012 C   0  0
   -3.5316    9.5365    8.6671 C   0  0
   -2.5553    9.3543    9.6287 C   0  0
   -1.8809   10.4453   10.1442 C   0  0
   -2.1900   11.7193    9.7058 C   0  0
   -3.1699   11.9019    8.7481 C   0  0
   -3.8407   10.8105    8.2287 C   0  0
    1.9752    6.3121    1.5358 H   0  0
    2.3333    4.6389    2.0690 H   0  0
    1.3565    5.7254    3.1223 H   0  0
    1.1373    5.4222   -0.4987 H   0  0
   -0.2944    4.3374   -0.4896 H   0  0
   -0.9797    1.8582    0.0213 H   0  0
   -0.8427   -0.7086    0.0063 H   0  0
   -1.5577    5.6454    0.8727 H   0  0
   -0.3218    6.9329    1.0765 H   0  0
   -2.5496    7.5978    2.4569 H   0  0
   -2.1662    6.4018    7.7025 H   0  0
   -4.3151    7.5535    8.8615 H   0  0
   -5.2818    8.6461    7.8135 H   0  0
   -2.3151    8.3412    9.9836 H   0  0
   -1.0982   10.2997   10.9033 H   0  0
   -1.6562   12.5878   10.1191 H   0  0
   -3.4159   12.9157    8.3993 H   0  0
   -4.6204   10.9558    7.4665 H   0  0
  1  2  1  0
  2  3  1  0
  2 13  1  0
  3  4  1  0
  4  8  1  0
  4  5  2  0
  5  6  1  0
  5 12  1  0
  6  7  2  0
  7 11  1  0
  7  8  1  0
  8  9  1  0
  9 10  2  0
 10 11  1  0
 13 14  1  0
 14 15  2  0
 14 16  1  0
 16 17  1  0
 17 21  1  0
 17 18  2  0
 18 19  1  0
 19 20  2  0
 20 21  1  0
 20 22  1  0
 22 23  1  0
 23 28  2  0
 23 24  1  0
 24 25  2  0
 25 26  1  0
 26 27  2  0
 27 28  1  0
  1 29  1  0
  1 30  1  0
  1 31  1  0
  3 32  1  0
  3 33  1  0
  9 34  1  0
 10 35  1  0
 13 36  1  0
 13 37  1  0
 16 38  1  0
 19 39  1  0
 22 40  1  0
 22 41  1  0
 24 42  1  0
 25 43  1  0
 26 44  1  0
 27 45  1  0
 28 46  1  0
M  END
> <Name>
ZINC30002310

> <reference>
BDB50209829

> <quality>
0.777

> <status>
decoy

$$$$
ZINC25851994
  SciTegic06061311263D

 54 57  0  0  0  0            999 V2000
    8.7169    6.0404   -1.0748 C   0  0
    7.3939    5.3258   -0.9738 C   0  0
    7.3097    4.1251   -0.2934 C   0  0
    6.1007    3.4681   -0.1913 C   0  0
    4.9598    4.0096   -0.7870 C   0  0
    5.0455    5.2206   -1.4736 C   0  0
    6.2634    5.8755   -1.5649 C   0  0
    6.3545    7.0935   -2.2538 N   0  0
    6.9263    8.2379   -1.7757 C   0  0
    6.8234    9.1889   -2.7262 C   0  0
    6.1562    8.6160   -3.8275 C   0  0
    5.8810    7.3341   -3.5119 C   0  0
    3.6644    3.3048   -0.6851 C   0  0
    2.6714    3.7806   -1.2003 O   0  0
    3.5843    2.1347   -0.0211 N   0  0
    2.3809    1.4190   -0.0065 C   0  0
    1.1696    2.0977    0.0180 C   0  0
   -0.0188    1.3929    0.0319 C   0  0
   -0.0046    0.0074    0.0215 C   0  0
    1.2076   -0.6757   -0.0031 C   0  0
    2.3987    0.0308   -0.0171 C   0  0
    1.2225   -2.0355   -0.0139 O   0  0
    2.5026   -2.6700   -0.0391 C   0  0
    2.3216   -4.1661   -0.0478 C   0  0
    2.2611   -4.8806    1.1389 C   0  0
    2.0901   -6.2512    1.0918 C   0  0
    1.9946   -6.8797   -0.0636 N   0  0
    2.0525   -6.2333   -1.2115 C   0  0
    2.2174   -4.8615   -1.2428 C   0  0
   -1.1757   -0.6851    0.0348 O   0  0
   -2.3820    0.0806    0.0594 C   0  0
    8.5347    7.0410   -0.6556 H   0  0
    8.8927    6.1666   -2.1533 H   0  0
    9.5441    5.5179   -0.5721 H   0  0
    8.2095    3.6922    0.1680 H   0  0
    6.0356    2.5180    0.3592 H   0  0
    4.1493    5.6545   -1.9411 H   0  0
    7.3906    8.3624   -0.7863 H   0  0
    7.1926   10.2226   -2.6550 H   0  0
    5.9058    9.1219   -4.7716 H   0  0
    5.3644    6.6078   -4.1565 H   0  0
    4.4083    1.7669    0.4756 H   0  0
    1.1562    3.1976    0.0264 H   0  0
   -0.9772    1.9323    0.0512 H   0  0
    3.3579   -0.5074   -0.0366 H   0  0
    3.0764   -2.3760    0.8521 H   0  0
    3.0470   -2.3618   -0.9439 H   0  0
    2.3481   -4.3631    2.1057 H   0  0
    2.0330   -6.8245    2.0289 H   0  0
    1.9686   -6.7924   -2.1551 H   0  0
    2.2654   -4.3281   -2.2036 H   0  0
   -2.3520    0.7333   -0.8255 H   0  0
   -2.3241    0.7202    0.9525 H   0  0
   -3.2848   -0.5478    0.0690 H   0  0
  1  2  1  0
  2  7  2  0
  2  3  1  0
  3  4  2  0
  4  5  1  0
  5  6  2  0
  5 13  1  0
  6  7  1  0
  7  8  1  0
  8 12  1  0
  8  9  1  0
  9 10  2  0
 10 11  1  0
 11 12  2  0
 13 14  2  0
 13 15  1  0
 15 16  1  0
 16 21  2  0
 16 17  1  0
 17 18  2  0
 18 19  1  0
 19 20  2  0
 19 30  1  0
 20 21  1  0
 20 22  1  0
 22 23  1  0
 23 24  1  0
 24 29  2  0
 24 25  1  0
 25 26  2  0
 26 27  1  0
 27 28  2  0
 28 29  1  0
 30 31  1  0
  1 32  1  0
  1 33  1  0
  1 34  1  0
  3 35  1  0
  4 36  1  0
  6 37  1  0
  9 38  1  0
 10 39  1  0
 11 40  1  0
 12 41  1  0
 15 42  1  0
 17 43  1  0
 18 44  1  0
 21 45  1  0
 23 46  1  0
 23 47  1  0
 25 48  1  0
 26 49  1  0
 28 50  1  0
 29 51  1  0
 31 52  1  0
 31 53  1  0
 31 54  1  0
M  END
> <Name>
ZINC25851994

> <reference>
BDB50209829

> <quality>
0.777

> <status>
decoy

$$$$
ZINC12809335
  SciTegic06061311263D

 50 52  0  0  1  0            999 V2000
    0.7448   -0.5036    1.2820 C   0  0
    0.0033   -0.0071    0.0391 C   0  0  1  0  0  0
   -1.4103   -0.5291    0.0556 C   0  0
   -2.4099   -0.1328    0.7920 N   0  0
   -3.6379   -0.6854    0.7053 C   0  0
   -4.8108   -0.3661    1.4247 C   0  0
   -5.9684   -1.0452    1.2025 C   0  0
   -6.0437   -2.0703    0.2696 C   0  0
   -4.9175   -2.4133   -0.4546 C   0  0
   -3.7438   -1.7331   -0.2378 C   0  0
   -2.0973   -1.8083   -0.8966 S   0  0
   -0.8024    1.9743   -1.0956 C   0  0
    1.3467    2.0071    0.0192 C   0  0
    1.2962    3.4936    0.2623 C   0  0
    0.2290    4.0444    0.4321 O   0  0
    2.4369    4.2109    0.2909 N   0  0
    2.3848    5.6052    0.4234 C   0  0
    1.3954    6.1929    1.1980 C   0  0
    1.3462    7.5718    1.3279 C   0  0
    2.2860    8.3646    0.6835 C   0  0
    3.2732    7.7806   -0.0893 C   0  0
    3.3295    6.4024   -0.2178 C   0  0
    4.3043    5.8284   -0.9736 O   0  0
    5.2397    6.7070   -1.6023 C   0  0
    2.2224   10.0915    0.8484 Cl  0  0
    0.3763    8.1487    2.0869 O   0  0
   -0.5580    7.2730    2.7210 C   0  0
   -0.0299    1.4704    0.0594 N   0  0
    0.7609   -1.6035    1.2857 H   0  0
    0.2317   -0.1419    2.1853 H   0  0
    1.7768   -0.1229    1.2706 H   0  0
    0.5178   -0.3626   -0.8658 H   0  0
   -4.7879    0.4402    2.1726 H   0  0
   -6.8672   -0.7753    1.7764 H   0  0
   -6.9913   -2.6050    0.1081 H   0  0
   -4.9606   -3.2233   -1.1976 H   0  0
   -1.8295    1.5840   -1.0442 H   0  0
   -0.3288    1.6312   -2.0273 H   0  0
   -0.8245    3.0739   -1.0765 H   0  0
    1.7896    1.8102   -0.9683 H   0  0
    1.9521    1.5253    0.8011 H   0  0
    3.3469    3.7344    0.2154 H   0  0
    0.6505    5.5650    1.7087 H   0  0
    4.0143    8.4110   -0.6024 H   0  0
    5.7003    7.2965   -0.7959 H   0  0
    4.6482    7.3932   -2.2263 H   0  0
    5.9956    6.1705   -2.1946 H   0  0
    0.0348    6.5866    3.3434 H   0  0
   -1.0234    6.6832    1.9176 H   0  0
   -1.3102    7.8119    3.3158 H   0  0
  1  2  1  0
  2  3  1  0
  2 28  1  0
  3 11  1  0
  3  4  2  0
  4  5  1  0
  5 10  1  0
  5  6  2  0
  6  7  1  0
  7  8  2  0
  8  9  1  0
  9 10  2  0
 10 11  1  0
 12 28  1  0
 13 14  1  0
 13 28  1  0
 14 15  2  0
 14 16  1  0
 16 17  1  0
 17 22  2  0
 17 18  1  0
 18 19  2  0
 19 20  1  0
 19 26  1  0
 20 21  2  0
 20 25  1  0
 21 22  1  0
 22 23  1  0
 23 24  1  0
 26 27  1  0
  1 29  1  0
  1 30  1  0
  1 31  1  0
  2 32  1  0
  6 33  1  0
  7 34  1  0
  8 35  1  0
  9 36  1  0
 12 37  1  0
 12 38  1  0
 12 39  1  0
 13 40  1  0
 13 41  1  0
 16 42  1  0
 18 43  1  0
 21 44  1  0
 24 45  1  0
 24 46  1  0
 24 47  1  0
 27 48  1  0
 27 49  1  0
 27 50  1  0
M  END
> <Name>
ZINC12809335

> <reference>
BDB50209829

> <quality>
0.772

> <status>
decoy

$$$$
ZINC24088341
  SciTegic06061311263D

 56 59  0  0  1  0            999 V2000
    0.4527   10.0099    1.1256 C   0  0
    1.8640    9.4895    1.0349 C   0  0
    2.9230   10.2976    1.4064 C   0  0
    4.2175    9.8229    1.3241 C   0  0
    4.4549    8.5341    0.8683 C   0  0
    3.3910    7.7255    0.4963 C   0  0
    2.0983    8.2068    0.5754 C   0  0
    3.6453    6.3254    0.0002 C   0  0  2  0  0  0
    3.9045    6.3576   -1.5073 C   0  0
    2.4746    5.4892    0.2767 N   0  0
    2.6209    4.1604    0.4484 C   0  0
    3.7243    3.6559    0.3738 O   0  0
    1.4394    3.3165    0.7274 C   0  0
    0.1710    3.8933    0.8131 C   0  0
   -0.9294    3.1028    1.0731 C   0  0
   -0.7813    1.7385    1.2438 C   0  0
    0.4766    1.1568    1.1660 C   0  0
    1.5880    1.9410    0.9054 C   0  0
    0.6170   -0.1838    1.3402 O   0  0
   -0.5715   -0.9314    1.6058 C   0  0
   -0.2225   -2.3883    1.7689 C   0  0
    1.0171   -2.9172    1.6746 C   0  0
    0.8997   -4.2634    1.8897 N   0  0
    1.8127   -5.2776    1.9149 C   0  0
    1.4224   -6.5479    2.1496 C   0  0
    0.0672   -6.8434    2.3717 C   0  0
   -0.8532   -5.8422    2.3490 C   0  0
   -0.4298   -4.5207    2.1029 C   0  0
   -1.0876   -3.3725    2.0251 N   0  0
    5.7277    8.0649    0.7860 O   0  0
    6.7735    8.9528    1.1859 C   0  0
   -0.0773    9.2897    1.7662 H   0  0
    0.0431    9.9050    0.1101 H   0  0
    0.3822   11.0406    1.5034 H   0  0
    2.7343   11.3193    1.7677 H   0  0
    5.0595   10.4661    1.6197 H   0  0
    1.2549    7.5689    0.2725 H   0  0
    4.5237    5.9081    0.5144 H   0  0
    4.7836    6.9851   -1.7159 H   0  0
    3.0266    6.7746   -2.0225 H   0  0
    4.0902    5.3359   -1.8701 H   0  0
    1.5397    5.9168    0.3399 H   0  0
    0.0490    4.9775    0.6734 H   0  0
   -1.9277    3.5592    1.1448 H   0  0
   -1.6635    1.1120    1.4419 H   0  0
    2.5848    1.4806    0.8390 H   0  0
   -1.0389   -0.5612    2.5302 H   0  0
   -1.2742   -0.8151    0.7676 H   0  0
    1.9469   -2.3683    1.4642 H   0  0
    2.8765   -5.0575    1.7423 H   0  0
    2.1689   -7.3556    2.1671 H   0  0
   -0.2482   -7.8797    2.5631 H   0  0
   -1.9173   -6.0617    2.5210 H   0  0
    6.5551    9.2398    2.2251 H   0  0
    6.6728    9.8513    0.5594 H   0  0
    7.7729    8.5030    1.0914 H   0  0
  1  2  1  0
  2  7  2  0
  2  3  1  0
  3  4  2  0
  4  5  1  0
  5  6  2  0
  5 30  1  0
  6  7  1  0
  6  8  1  0
  8  9  1  0
  8 10  1  0
 10 11  1  0
 11 12  2  0
 11 13  1  0
 13 18  2  0
 13 14  1  0
 14 15  2  0
 15 16  1  0
 16 17  2  0
 17 18  1  0
 17 19  1  0
 19 20  1  0
 20 21  1  0
 21 29  1  0
 21 22  2  0
 22 23  1  0
 23 28  1  0
 23 24  1  0
 24 25  2  0
 25 26  1  0
 26 27  2  0
 27 28  1  0
 28 29  2  0
 30 31  1  0
  1 32  1  0
  1 33  1  0
  1 34  1  0
  3 35  1  0
  4 36  1  0
  7 37  1  0
  8 38  1  0
  9 39  1  0
  9 40  1  0
  9 41  1  0
 10 42  1  0
 14 43  1  0
 15 44  1  0
 16 45  1  0
 18 46  1  0
 20 47  1  0
 20 48  1  0
 22 49  1  0
 24 50  1  0
 25 51  1  0
 26 52  1  0
 27 53  1  0
 31 54  1  0
 31 55  1  0
 31 56  1  0
M  END
> <Name>
ZINC24088341

> <reference>
BDB50209829

> <quality>
0.771

> <status>
decoy

$$$$
ZINC21158256
  SciTegic06061311263D

 39 41  0  0  0  0            999 V2000
    1.1741    2.0860    0.0787 C   0  0
    2.3779    1.4085    0.0702 C   0  0
    2.3941    0.0249    0.0658 C   0  0
    1.2050   -0.6827    0.0709 C   0  0
   -0.0008   -0.0086    0.0803 C   0  0
   -0.0190    1.3785    0.0843 C   0  0
   -1.2044    2.0434    0.0880 O   0  0
   -1.1474    3.4713    0.0919 C   0  0
   -2.5470    4.0300    0.0955 C   0  0
   -3.7081    3.3074    0.0884 N   0  0
   -4.7165    4.2279    0.0886 C   0  0
   -4.1543    5.4142    0.0960 N   0  5
   -2.8750    5.2910    0.1060 N   0  0
   -6.4454    3.8879    0.0805 S   0  0
   -7.0978    5.5762    0.0854 C   0  0
   -8.6041    5.5327    0.0795 C   0  0
   -9.1800    4.4652    0.0726 O   0  0
   -9.3114    6.6799    0.0818 N   0  0
  -10.7078    6.6418   -0.0178 C   0  0
  -11.4188    5.6052    0.5705 C   0  0
  -12.7985    5.5729    0.4743 C   0  0
  -13.4693    6.5679   -0.2170 C   0  0
  -12.7631    7.5989   -0.8085 C   0  0
  -11.3841    7.6394   -0.7112 C   0  0
  -10.6949    8.6474   -1.2891 F   0  0
  -13.4919    4.5672    1.0514 F   0  0
    3.9081   -0.8244    0.0545 Cl  0  0
    1.1617    3.1859    0.0810 H   0  0
    3.3242    1.9693    0.0669 H   0  0
    1.2198   -1.7826    0.0675 H   0  0
   -0.9459   -0.5714    0.0846 H   0  0
   -0.6138    3.8147    0.9905 H   0  0
   -0.6163    3.8206   -0.8058 H   0  0
   -6.7436    6.1099   -0.8089 H   0  0
   -6.7502    6.1011    0.9874 H   0  0
   -8.8249    7.5847    0.1568 H   0  0
  -10.8859    4.8102    1.1127 H   0  0
  -14.5661    6.5379   -0.2956 H   0  0
  -13.2986    8.3878   -1.3571 H   0  0
  1  6  2  0
  1  2  1  0
  2  3  2  0
  3  4  1  0
  3 27  1  0
  4  5  2  0
  5  6  1  0
  6  7  1  0
  7  8  1  0
  8  9  1  0
  9 10  1  0
  9 13  2  0
 10 11  2  0
 11 14  1  0
 11 12  1  0
 12 13  1  0
 14 15  1  0
 15 16  1  0
 16 17  2  0
 16 18  1  0
 18 19  1  0
 19 24  2  0
 19 20  1  0
 20 21  2  0
 21 22  1  0
 21 26  1  0
 22 23  2  0
 23 24  1  0
 24 25  1  0
  1 28  1  0
  2 29  1  0
  4 30  1  0
  5 31  1  0
  8 32  1  0
  8 33  1  0
 15 34  1  0
 15 35  1  0
 18 36  1  0
 20 37  1  0
 22 38  1  0
 23 39  1  0
M  CHG  1  12  -1
M  END
> <Name>
ZINC21158256

> <reference>
BDB50209829

> <quality>
0.770

> <status>
decoy

$$$$
ZINC28805922
  SciTegic06061311263D

 49 52  0  0  1  0            999 V2000
   -5.3048    0.2791   -1.4733 C   0  0
   -4.9052   -0.0945   -0.0445 C   0  0  1  0  0  0
   -5.9742   -0.9645    0.5649 C   0  0
   -5.7022   -2.0845    0.9427 O   0  0
   -7.2325   -0.4981    0.6901 N   0  0
   -8.2717   -1.3439    1.2825 C   0  0
   -9.5778   -0.5925    1.3063 C   0  0
  -10.5504   -0.5414    0.3637 C   0  0
  -11.6787    0.2199    0.6052 C   0  0
  -11.7742    0.9012    1.7731 C   0  0
  -10.2419    0.4676    2.5801 S   0  0
   -3.6468   -0.8184   -0.0674 O   0  0
   -2.5189   -0.0876    0.0266 C   0  0
   -2.5850    1.1212    0.1250 O   0  0
   -1.2013   -0.7568    0.0099 C   0  0
   -1.1011   -2.1402    0.0195 C   0  0
    0.1668   -2.7408    0.0036 C   0  0
    1.2715   -2.0229   -0.0203 N   0  0
    1.2427   -0.6894   -0.0306 C   0  0
    0.0018   -0.0041   -0.0158 C   0  0
   -0.0174    1.3962   -0.0264 C   0  0
    1.1571    2.0870   -0.0507 C   0  0
    2.3794    1.4180   -0.0663 C   0  0
    2.4354    0.0586   -0.0562 C   0  0
    0.2661   -4.2210    0.0134 C   0  0
   -0.8821   -5.0174    0.0441 C   0  0
   -0.7443   -6.3908    0.0475 C   0  0
    0.4494   -6.9515    0.0325 N   0  0
    1.5575   -6.2365    0.0085 C   0  0
    1.5106   -4.8571   -0.0019 C   0  0
   -6.2580    0.8279   -1.4569 H   0  0
   -5.4191   -0.6352   -2.0741 H   0  0
   -4.5249    0.9142   -1.9187 H   0  0
   -4.7910    0.8204    0.5554 H   0  0
   -7.4635    0.4530    0.3693 H   0  0
   -8.3864   -2.2586    0.6824 H   0  0
   -7.9855   -1.6129    2.3100 H   0  0
  -10.4435   -1.0974   -0.5794 H   0  0
  -12.4869    0.2720   -0.1392 H   0  0
  -12.5854    1.5523    2.1308 H   0  0
   -2.0086   -2.7616    0.0394 H   0  0
   -0.9759    1.9359   -0.0152 H   0  0
    1.1400    3.1868   -0.0581 H   0  0
    3.3138    1.9981   -0.0871 H   0  0
    3.4086   -0.4541   -0.0680 H   0  0
   -1.8807   -4.5565    0.0652 H   0  0
   -1.6421   -7.0262    0.0629 H   0  0
    2.5321   -6.7464   -0.0034 H   0  0
    2.4388   -4.2672   -0.0219 H   0  0
  1  2  1  0
  2  3  1  0
  2 12  1  0
  3  4  2  0
  3  5  1  0
  5  6  1  0
  6  7  1  0
  7 11  1  0
  7  8  2  0
  8  9  1  0
  9 10  2  0
 10 11  1  0
 12 13  1  0
 13 14  2  0
 13 15  1  0
 15 20  2  0
 15 16  1  0
 16 17  2  0
 17 18  1  0
 17 25  1  0
 18 19  2  0
 19 24  1  0
 19 20  1  0
 20 21  1  0
 21 22  2  0
 22 23  1  0
 23 24  2  0
 25 30  2  0
 25 26  1  0
 26 27  2  0
 27 28  1  0
 28 29  2  0
 29 30  1  0
  1 31  1  0
  1 32  1  0
  1 33  1  0
  2 34  1  0
  5 35  1  0
  6 36  1  0
  6 37  1  0
  8 38  1  0
  9 39  1  0
 10 40  1  0
 16 41  1  0
 21 42  1  0
 22 43  1  0
 23 44  1  0
 24 45  1  0
 26 46  1  0
 27 47  1  0
 29 48  1  0
 30 49  1  0
M  END
> <Name>
ZINC28805922

> <reference>
BDB50209829

> <quality>
0.768

> <status>
decoy

$$$$
ZINC25367475
  SciTegic06061311263D

 53 56  0  0  1  0            999 V2000
   -1.5027   -1.3769   -1.4122 C   0  0
   -1.2217   -0.8835    0.0085 C   0  0  2  0  0  0
    0.0021   -0.0041    0.0020 C   0  0
   -0.0161    1.3357    0.0094 C   0  0
    1.3878    1.7641   -0.0017 C   0  0
    2.0296    3.0016   -0.0013 C   0  0
    3.3958    3.0567   -0.0132 C   0  0
    4.1458    1.8895   -0.0266 C   0  0
    3.5288    0.6569   -0.0277 C   0  0
    2.1416    0.5786   -0.0153 C   0  0
    1.2704   -0.4501   -0.0125 O   0  0
   -0.9927   -2.0325    0.8881 N   0  0
   -2.0385   -2.6670    1.4539 C   0  0
   -3.1692   -2.2868    1.2349 O   0  0
   -1.8029   -3.8489    2.3588 C   0  0  1  0  0  0
   -1.5219   -3.3555    3.7795 C   0  0
   -3.2727   -4.9051    2.3666 S   0  0
   -2.6826   -6.2433    3.3493 C   0  0
   -1.4829   -6.3412    3.8731 N   0  0
   -1.3894   -7.4923    4.5601 C   0  0
   -2.5611   -8.1428    4.4596 C   0  0
   -3.3925   -7.3567    3.6906 N   0  0
   -4.7157   -7.6464    3.3287 C   0  0
   -5.7123   -6.6984    3.5207 C   0  0
   -7.0159   -6.9835    3.1639 C   0  0
   -7.3320   -8.2120    2.6152 C   0  0
   -6.3401   -9.1628    2.4212 C   0  0
   -5.0298   -8.8780    2.7733 C   0  0
   -6.6519  -10.3701    1.8807 O   0  0
   -8.0207  -10.5924    1.5357 C   0  0
   -0.6402   -1.9528   -1.7788 H   0  0
   -1.6750   -0.5149   -2.0735 H   0  0
   -2.3959   -2.0189   -1.4082 H   0  0
   -2.0848   -0.3080    0.3742 H   0  0
   -0.9045    1.9842    0.0214 H   0  0
    1.4395    3.9298    0.0085 H   0  0
    3.9035    4.0326   -0.0121 H   0  0
    5.2442    1.9484   -0.0364 H   0  0
    4.1330   -0.2623   -0.0384 H   0  0
   -0.0325   -2.3554    1.0741 H   0  0
   -0.9397   -4.4244    1.9931 H   0  0
   -2.3847   -2.7801    4.1463 H   0  0
   -0.6286   -2.7136    3.7759 H   0  0
   -1.3498   -4.2177    4.4405 H   0  0
   -0.5042   -7.8426    5.1111 H   0  0
   -2.8095   -9.1170    4.9060 H   0  0
   -5.4634   -5.7199    3.9572 H   0  0
   -7.8039   -6.2314    3.3167 H   0  0
   -8.3710   -8.4363    2.3320 H   0  0
   -4.2407   -9.6273    2.6125 H   0  0
   -8.2958   -9.7934    0.8315 H   0  0
   -8.6004  -10.4432    2.4586 H   0  0
   -8.1944  -11.5896    1.1050 H   0  0
  1  2  1  0
  2  3  1  0
  2 12  1  0
  3 11  1  0
  3  4  2  0
  4  5  1  0
  5 10  1  0
  5  6  2  0
  6  7  1  0
  7  8  2  0
  8  9  1  0
  9 10  2  0
 10 11  1  0
 12 13  1  0
 13 14  2  0
 13 15  1  0
 15 16  1  0
 15 17  1  0
 17 18  1  0
 18 22  1  0
 18 19  2  0
 19 20  1  0
 20 21  2  0
 21 22  1  0
 22 23  1  0
 23 28  2  0
 23 24  1  0
 24 25  2  0
 25 26  1  0
 26 27  2  0
 27 28  1  0
 27 29  1  0
 29 30  1  0
  1 31  1  0
  1 32  1  0
  1 33  1  0
  2 34  1  0
  4 35  1  0
  6 36  1  0
  7 37  1  0
  8 38  1  0
  9 39  1  0
 12 40  1  0
 15 41  1  0
 16 42  1  0
 16 43  1  0
 16 44  1  0
 20 45  1  0
 21 46  1  0
 24 47  1  0
 25 48  1  0
 26 49  1  0
 28 50  1  0
 30 51  1  0
 30 52  1  0
 30 53  1  0
M  END
> <Name>
ZINC25367475

> <reference>
BDB50209829

> <quality>
0.767

> <status>
decoy

$$$$
ZINC30012664
  SciTegic06061311263D

 54 57  0  0  0  0            999 V2000
    2.2309    5.2893    0.0102 C   0  0
    2.3218    3.8633    0.0011 O   0  0
    1.1532    3.1707    0.0086 C   0  0
    1.1710    1.7820    0.0004 C   0  0
   -0.0126    1.0758    0.0080 C   0  0
   -1.2304    1.7582    0.0174 C   0  0
   -1.2441    3.1541    0.0310 C   0  0
   -0.0563    3.8532    0.0238 C   0  0
   -2.5021    1.0046    0.0193 C   0  0
   -3.7402    1.4631    0.0331 N   0  0
   -4.7610    0.6172    0.0288 C   0  0
   -4.4987   -0.7435    0.0204 C   0  0
   -2.7622   -0.7617    0.0114 S   0  0
   -6.1422    1.1122    0.0390 C   0  0
   -6.3835    2.4429    0.0471 C   0  0
   -7.7174    2.9210    0.0569 C   0  0
   -8.6463    2.1338    0.0580 O   0  0
   -7.9579    4.2472    0.0650 N   0  0
   -9.3370    4.7415    0.0752 C   0  0
   -9.3304    6.2484    0.0829 C   0  0
   -9.3339    6.9646   -1.1071 C   0  0
   -9.3282    8.3442   -1.0659 C   0  0
   -9.3195    8.9869    0.0867 N   0  0
   -9.3159    8.3403    1.2421 C   0  0
   -9.3266    6.9494    1.2750 C   0  0
   -9.3072    9.0575    2.4327 N   0  0
   -8.0730    8.7811    3.2116 C   0  0
   -7.9794    9.9948    4.1701 C   0  0
   -8.4685   11.1684    3.2906 C   0  0
   -9.3032   10.5138    2.1743 C   0  0
    1.6521    5.5566    0.9066 H   0  0
    1.6346    5.5668   -0.8715 H   0  0
    3.2161    5.7785    0.0033 H   0  0
    2.1310    1.2450   -0.0122 H   0  0
    0.0024   -0.0241    0.0067 H   0  0
   -2.2016    3.6953    0.0474 H   0  0
   -0.0663    4.9531    0.0301 H   0  0
   -5.2035   -1.5881    0.0196 H   0  0
   -6.9814    0.4010    0.0401 H   0  0
   -5.5443    3.1541    0.0461 H   0  0
   -7.1721    4.9131    0.0640 H   0  0
   -9.8621    4.3823   -0.8221 H   0  0
   -9.8531    4.3732    0.9741 H   0  0
   -9.3411    6.4377   -2.0726 H   0  0
   -9.3309    8.9154   -2.0060 H   0  0
   -9.3320    6.4146    2.2362 H   0  0
   -8.1852    7.8510    3.7880 H   0  0
   -7.1976    8.7559    2.5460 H   0  0
   -6.9361   10.1591    4.4776 H   0  0
   -8.6536    9.8556    5.0281 H   0  0
   -7.6083   11.6980    2.8553 H   0  0
   -9.0998   11.8461    3.8840 H   0  0
  -10.3321   10.9018    2.2040 H   0  0
   -8.8416   10.7180    1.1970 H   0  0
  1  2  1  0
  2  3  1  0
  3  8  2  0
  3  4  1  0
  4  5  2  0
  5  6  1  0
  6  7  2  0
  6  9  1  0
  7  8  1  0
  9 13  1  0
  9 10  2  0
 10 11  1  0
 11 12  2  0
 11 14  1  0
 12 13  1  0
 14 15  2  0
 15 16  1  0
 16 17  2  0
 16 18  1  0
 18 19  1  0
 19 20  1  0
 20 25  2  0
 20 21  1  0
 21 22  2  0
 22 23  1  0
 23 24  2  0
 24 25  1  0
 24 26  1  0
 26 30  1  0
 26 27  1  0
 27 28  1  0
 28 29  1  0
 29 30  1  0
  1 31  1  0
  1 32  1  0
  1 33  1  0
  4 34  1  0
  5 35  1  0
  7 36  1  0
  8 37  1  0
 12 38  1  0
 14 39  1  0
 15 40  1  0
 18 41  1  0
 19 42  1  0
 19 43  1  0
 21 44  1  0
 22 45  1  0
 25 46  1  0
 27 47  1  0
 27 48  1  0
 28 49  1  0
 28 50  1  0
 29 51  1  0
 29 52  1  0
 30 53  1  0
 30 54  1  0
M  END
> <Name>
ZINC30012664

> <reference>
BDB50209829

> <quality>
0.764

> <status>
decoy

$$$$
ZINC24957053
  SciTegic06061311263D

 51 54  0  0  0  0            999 V2000
    1.7272   -1.8259   -0.0242 C   0  0
    1.2506   -0.3963   -0.0120 C   0  0
    2.0668    0.7402   -0.0137 C   0  0
    1.2641    1.8296   -0.0002 C   0  0
   -0.0169    1.3967    0.0097 N   0  0
    0.0021   -0.0041    0.0020 N   0  0
   -1.1613    2.2062    0.0198 C   0  0
   -1.1591    3.4052    0.7198 C   0  0
   -2.2867    4.2027    0.7243 C   0  0
   -3.4205    3.8033    0.0409 C   0  0
   -3.4274    2.6074   -0.6533 C   0  0
   -2.3012    1.8079   -0.6655 C   0  0
    1.7166    3.2671    0.0032 C   0  0
    3.5737    0.7495   -0.0280 C   0  0
    4.0488    0.7593   -1.4138 N   0  0
    5.3714    0.7686   -1.6727 C   0  0
    6.1701    0.7689   -0.7564 O   0  0
    5.8509    0.7786   -3.0712 C   0  0
    4.9365    0.7724   -4.1257 C   0  0
    5.3905    0.7870   -5.4284 C   0  0
    6.7490    0.7966   -5.6907 C   0  0
    7.6607    0.7970   -4.6500 C   0  0
    7.2200    0.7882   -3.3427 C   0  0
    7.2377    0.8072   -7.1162 C   0  0
    7.4443   -0.8950   -7.6958 S   0  0
    8.0061   -0.5929   -9.3383 C   0  0
    8.3356   -1.5351  -10.2698 N   0  0
    8.7089   -0.8381  -11.3857 C   0  0
    8.5983    0.4296  -11.1062 N   0  0
    8.1870    0.5809   -9.8979 N   0  5
    1.2134   -2.2473   -0.9008 H   0  0
    1.2302   -2.2568    0.8575 H   0  0
    2.8176   -1.9703   -0.0354 H   0  0
   -0.2602    3.7197    1.2703 H   0  0
   -2.2828    5.1566    1.2721 H   0  0
   -4.3188    4.4382    0.0495 H   0  0
   -4.3307    2.2925   -1.1963 H   0  0
   -2.3074    0.8565   -1.2176 H   0  0
    2.3698    3.3144   -0.8806 H   0  0
    2.3866    3.3050    0.8748 H   0  0
    0.9232    4.0289    0.0149 H   0  0
    3.9399    1.6476    0.4910 H   0  0
    3.9519   -0.1487    0.4822 H   0  0
    3.3720    0.7591   -2.1903 H   0  0
    3.8563    0.7559   -3.9186 H   0  0
    4.6709    0.7910   -6.2604 H   0  0
    8.7394    0.8044   -4.8654 H   0  0
    7.9459    0.7887   -2.5162 H   0  0
    6.5035    1.3238   -7.7519 H   0  0
    8.2031    1.3318   -7.1702 H   0  0
    9.0410   -1.2682  -12.3421 H   0  0
  1  2  1  0
  2  6  2  0
  2  3  1  0
  3  4  2  0
  3 14  1  0
  4  5  1  0
  4 13  1  0
  5  6  1  0
  5  7  1  0
  7 12  2  0
  7  8  1  0
  8  9  2  0
  9 10  1  0
 10 11  2  0
 11 12  1  0
 14 15  1  0
 15 16  1  0
 16 17  2  0
 16 18  1  0
 18 23  2  0
 18 19  1  0
 19 20  2  0
 20 21  1  0
 21 22  2  0
 21 24  1  0
 22 23  1  0
 24 25  1  0
 25 26  1  0
 26 27  2  0
 26 30  1  0
 27 28  1  0
 28 29  2  0
 29 30  1  0
  1 31  1  0
  1 32  1  0
  1 33  1  0
  8 34  1  0
  9 35  1  0
 10 36  1  0
 11 37  1  0
 12 38  1  0
 13 39  1  0
 13 40  1  0
 13 41  1  0
 14 42  1  0
 14 43  1  0
 15 44  1  0
 19 45  1  0
 20 46  1  0
 22 47  1  0
 23 48  1  0
 24 49  1  0
 24 50  1  0
 28 51  1  0
M  CHG  1  30  -1
M  END
> <Name>
ZINC24957053

> <reference>
BDB50209829

> <quality>
0.761

> <status>
decoy

$$$$
ZINC00901824
  SciTegic06061311263D

 43 45  0  0  0  0            999 V2000
    3.4749    2.3352   -1.5426 C   0  0
    2.1842    1.5574   -1.5463 C   0  0
    2.0880    0.5454   -2.2073 O   0  0
    1.0403    2.0261   -0.7476 C   0  0
    1.1480    3.1932    0.0161 C   0  0
    0.0741    3.6289    0.7636 C   0  0
   -1.1109    2.9159    0.7621 C   0  0
   -1.2275    1.7518    0.0117 C   0  0
   -0.1578    1.3069   -0.7485 C   0  0
   -2.4277    1.0320    0.0192 N   0  0
   -2.4086   -0.3112   -0.0899 C   0  0
   -1.3505   -0.9040   -0.0983 O   0  0
   -3.7020   -1.0767   -0.2015 C   0  0
   -3.3462   -2.8465   -0.3327 S   0  0
   -4.9862   -3.4806   -0.4467 C   0  0
   -5.1657   -4.7870   -0.5657 N   0  0
   -6.3947   -5.2978   -0.6486 C   0  0
   -7.4933   -4.4286   -0.6191 C   0  0
   -7.2565   -3.0725   -0.4992 C   0  0
   -6.0084   -2.6367   -0.4163 N   0  0
   -8.4065   -2.0993   -0.4626 C   0  0  1  0  0  0
   -7.9103   -0.7913   -0.4519 F   0  0
   -9.2098   -2.2840   -1.5930 F   0  0
   -9.1669   -2.3190    0.6909 F   0  0
   -6.5943   -6.7541   -0.7752 C   0  0
   -5.6113   -7.6943   -0.8204 C   0  0
   -6.2498   -8.9426   -0.9422 C   0  0
   -7.5773   -8.7065   -0.9732 C   0  0
   -7.7814   -7.3843   -0.8722 O   0  0
    3.6732    2.5796   -2.5966 H   0  0
    4.2460    1.6225   -1.2147 H   0  0
    3.4389    3.2320   -0.9066 H   0  0
    2.0888    3.7631    0.0204 H   0  0
    0.1604    4.5470    1.3633 H   0  0
   -1.9648    3.2716    1.3573 H   0  0
   -0.2514    0.3910   -1.3504 H   0  0
   -3.3256    1.5288    0.1081 H   0  0
   -4.3159   -0.8920    0.6924 H   0  0
   -4.2490   -0.7462   -1.0968 H   0  0
   -8.5202   -4.8166   -0.6897 H   0  0
   -4.5274   -7.5135   -0.7712 H   0  0
   -5.7589   -9.9252   -1.0010 H   0  0
   -8.3625   -9.4712   -1.0659 H   0  0
  1  2  1  0
  2  3  2  0
  2  4  1  0
  4  9  2  0
  4  5  1  0
  5  6  2  0
  6  7  1  0
  7  8  2  0
  8  9  1  0
  8 10  1  0
 10 11  1  0
 11 12  2  0
 11 13  1  0
 13 14  1  0
 14 15  1  0
 15 20  2  0
 15 16  1  0
 16 17  2  0
 17 18  1  0
 17 25  1  0
 18 19  2  0
 19 20  1  0
 19 21  1  0
 21 22  1  0
 21 23  1  0
 21 24  1  0
 25 29  1  0
 25 26  2  0
 26 27  1  0
 27 28  2  0
 28 29  1  0
  1 30  1  0
  1 31  1  0
  1 32  1  0
  5 33  1  0
  6 34  1  0
  7 35  1  0
  9 36  1  0
 10 37  1  0
 13 38  1  0
 13 39  1  0
 18 40  1  0
 26 41  1  0
 27 42  1  0
 28 43  1  0
M  END
> <Name>
ZINC00901824

> <reference>
BDB50209829

> <quality>
0.761

> <status>
decoy

$$$$
ZINC28684838
  SciTegic06061311263D

 51 54  0  0  1  0            999 V2000
  -10.9429   -2.6422   -3.3571 C   0  0
   -9.9875   -3.0063   -4.4953 C   0  0  1  0  0  0
   -9.3715   -1.7294   -5.0739 C   0  0
   -8.3729   -2.1060   -6.1718 C   0  0
   -7.3048   -3.0329   -5.5871 C   0  0
   -7.9443   -4.2396   -5.0474 N   0  0
   -8.8726   -3.9071   -3.9592 C   0  0
   -6.9391   -5.2141   -4.6025 C   0  0
   -6.1817   -4.6532   -3.4266 C   0  0
   -6.5533   -4.9498   -2.1572 C   0  0
   -5.3307   -4.0332   -1.2308 S   0  0
   -4.4732   -3.3671   -2.5859 C   0  0
   -5.1457   -3.8580   -3.6086 N   0  0
   -3.3657   -2.5270   -2.5913 N   0  0
   -2.8184   -2.1260   -1.4268 C   0  0
   -3.2922   -2.4982   -0.3742 O   0  0
   -1.6178   -1.2153   -1.4326 C   0  0
   -1.1986   -0.9148    0.0078 C   0  0
    0.0021   -0.0041    0.0020 C   0  0
   -0.0157    1.3051    0.0092 N   0  0
    1.2834    1.6864   -0.0011 C   0  0
    2.0058    0.5932   -0.0139 N   0  0
    1.2844   -0.3818   -0.0123 O   0  0
    1.7909    3.0738    0.0007 C   0  0
    3.0864    3.5190   -0.0037 C   0  0
    3.3202    4.8753   -0.0039 C   0  0
    2.2635    5.7293    0.0103 C   0  0
    0.8755    4.6066    0.0172 S   0  0
  -10.3895   -2.1102   -2.5692 H   0  0
  -11.3828   -3.5598   -2.9393 H   0  0
  -11.7443   -1.9947   -3.7424 H   0  0
  -10.5436   -3.5370   -5.2821 H   0  0
  -10.1655   -1.0990   -5.5007 H   0  0
   -8.8502   -1.1781   -4.2775 H   0  0
   -7.8942   -1.1958   -6.5622 H   0  0
   -8.9007   -2.6230   -6.9867 H   0  0
   -6.5940   -3.3174   -6.3769 H   0  0
   -6.7674   -2.5120   -4.7810 H   0  0
   -9.3096   -4.8324   -3.5557 H   0  0
   -8.3279   -3.3810   -3.1614 H   0  0
   -7.4396   -6.1472   -4.3043 H   0  0
   -6.2380   -5.4206   -5.4245 H   0  0
   -7.3793   -5.5805   -1.7969 H   0  0
   -2.9634   -2.2110   -3.4853 H   0  0
   -0.7873   -1.7066   -1.9607 H   0  0
   -1.8720   -0.2749   -1.9435 H   0  0
   -2.0285   -0.4231    0.5364 H   0  0
   -0.9429   -1.8541    0.5200 H   0  0
    3.9240    2.8060   -0.0070 H   0  0
    4.3495    5.2630   -0.0154 H   0  0
    2.2633    6.8293    0.0161 H   0  0
  1  2  1  0
  2  7  1  0
  2  3  1  0
  3  4  1  0
  4  5  1  0
  5  6  1  0
  6  7  1  0
  6  8  1  0
  8  9  1  0
  9 13  1  0
  9 10  2  0
 10 11  1  0
 11 12  1  0
 12 13  2  0
 12 14  1  0
 14 15  1  0
 15 16  2  0
 15 17  1  0
 17 18  1  0
 18 19  1  0
 19 23  1  0
 19 20  2  0
 20 21  1  0
 21 22  2  0
 21 24  1  0
 22 23  1  0
 24 28  1  0
 24 25  2  0
 25 26  1  0
 26 27  2  0
 27 28  1  0
  1 29  1  0
  1 30  1  0
  1 31  1  0
  2 32  1  0
  3 33  1  0
  3 34  1  0
  4 35  1  0
  4 36  1  0
  5 37  1  0
  5 38  1  0
  7 39  1  0
  7 40  1  0
  8 41  1  0
  8 42  1  0
 10 43  1  0
 14 44  1  0
 17 45  1  0
 17 46  1  0
 18 47  1  0
 18 48  1  0
 25 49  1  0
 26 50  1  0
 27 51  1  0
M  END
> <Name>
ZINC28684838

> <reference>
BDB50209829

> <quality>
0.761

> <status>
decoy

$$$$
ZINC06559077
  SciTegic06061311263D

 52 54  0  0  1  0            999 V2000
    0.6963   -0.2919    0.3502 C   0  0
    0.0287    1.0507    0.0458 C   0  0
   -0.6875    1.5459    1.2758 C   0  0
   -2.0107    1.2043    1.4880 C   0  0
   -2.6685    1.6516    2.6168 C   0  0
   -2.0027    2.4551    3.5342 C   0  0
   -0.6751    2.8010    3.3150 C   0  0
   -0.0218    2.3455    2.1868 C   0  0
   -2.6669    2.9145    4.6742 N   0  0
   -2.2418    4.0787    5.3047 C   0  0
   -1.3141    4.9391    4.9333 N   0  0
   -1.0484    6.0395    5.7149 N   0  0
   -1.7234    6.2288    6.8328 C   0  0
   -2.8120    4.8126    6.8301 S   0  0
   -1.5915    7.5336    8.0095 S   0  0
   -0.2863    8.5996    7.3383 C   0  0  1  0  0  0
   -0.7550    9.2082    6.0151 C   0  0
    0.0155    9.7029    8.3196 C   0  0
   -0.7956    9.9938    9.1733 O   0  0
    1.1865   10.3662    8.2486 N   0  0
    1.4658   11.3872    9.1568 C   0  0
    0.6496   11.8199   10.1564 C   0  0
    1.3089   12.8510   10.8311 C   0  0
    2.4702   13.0405   10.2587 N   0  0
    2.5946   12.1312    9.2006 N   0  0
    3.7442   12.0073    8.3010 C   0  0  1  0  0  0
    3.9593   13.3302    7.5631 C   0  0
    4.9945   11.6682    9.1150 C   0  0
   -0.0689   -1.0240    0.6477 H   0  0
    1.4199   -0.1655    1.1690 H   0  0
    1.2193   -0.6540   -0.5472 H   0  0
   -0.6949    0.9244   -0.7730 H   0  0
    0.7946    1.7822   -0.2513 H   0  0
   -2.5398    0.5755    0.7568 H   0  0
   -3.7183    1.3721    2.7895 H   0  0
   -0.1450    3.4369    4.0392 H   0  0
    1.0293    2.6190    2.0126 H   0  0
   -3.4714    2.3909    5.0476 H   0  0
    0.6219    8.0032    7.1664 H   0  0
   -1.6630    9.8051    6.1860 H   0  0
   -0.9752    8.4038    5.2978 H   0  0
    0.0360    9.8548    5.6075 H   0  0
    1.8752   10.1191    7.5236 H   0  0
   -0.3509   11.4278   10.3914 H   0  0
    0.9184   13.4080   11.6955 H   0  0
    3.5538   11.2069    7.5708 H   0  0
    4.1500   14.1312    8.2924 H   0  0
    3.0609   13.5748    6.9773 H   0  0
    4.8224   13.2378    6.8874 H   0  0
    4.8409   10.7170    9.6457 H   0  0
    5.1859   12.4681    9.8454 H   0  0
    5.8581   11.5750    8.4401 H   0  0
  1  2  1  0
  2  3  1  0
  3  8  2  0
  3  4  1  0
  4  5  2  0
  5  6  1  0
  6  7  2  0
  6  9  1  0
  7  8  1  0
  9 10  1  0
 10 14  1  0
 10 11  2  0
 11 12  1  0
 12 13  2  0
 13 14  1  0
 13 15  1  0
 15 16  1  0
 16 17  1  0
 16 18  1  0
 18 19  2  0
 18 20  1  0
 20 21  1  0
 21 25  1  0
 21 22  2  0
 22 23  1  0
 23 24  2  0
 24 25  1  0
 25 26  1  0
 26 27  1  0
 26 28  1  0
  1 29  1  0
  1 30  1  0
  1 31  1  0
  2 32  1  0
  2 33  1  0
  4 34  1  0
  5 35  1  0
  7 36  1  0
  8 37  1  0
  9 38  1  0
 16 39  1  0
 17 40  1  0
 17 41  1  0
 17 42  1  0
 20 43  1  0
 22 44  1  0
 23 45  1  0
 26 46  1  0
 27 47  1  0
 27 48  1  0
 27 49  1  0
 28 50  1  0
 28 51  1  0
 28 52  1  0
M  END
> <Name>
ZINC06559077

> <reference>
BDB50209829

> <quality>
0.761

> <status>
decoy

$$$$
ZINC08945513
  SciTegic06061311263D

 61 64  0  0  0  0            999 V2000
   -3.2416    1.1342   -4.9302 C   0  0
   -4.8208    2.0180   -4.9633 S   0  0
   -5.1178    2.1787   -3.2339 C   0  0
   -4.2321    1.6813   -2.3865 N   0  0
   -4.4199    1.7823   -1.0720 C   0  0
   -5.5778    2.4287   -0.5971 C   0  0
   -5.5218    2.3934    0.8131 C   0  0
   -4.4314    1.7754    1.1676 N   0  0
   -3.7175    1.3862    0.0272 N   0  0
   -2.4389    0.6711    0.0173 C   0  0
   -1.2896    1.6810    0.0173 C   0  0
   -0.0111    0.9658    0.0074 N   0  0
    1.1468    1.6555    0.0000 C   0  0
    1.1304    2.8682    0.0067 O   0  0
    2.4620    0.9199   -0.0165 C   0  0
    3.6112    1.9298   -0.0221 C   0  0  2  0  0  0
    3.5795    2.7314   -1.3249 C   0  0
    4.7287    3.7414   -1.3304 C   0  0
    6.0615    2.9980   -1.2214 C   0  0
    6.0933    2.1964    0.0814 C   0  0
    4.9440    1.1864    0.0870 C   0  0
   -6.4922    2.9428   -1.5379 C   0  0
   -6.2226    2.7955   -2.8291 N   0  0
   -7.6432    3.5850   -1.1258 N   0  0
   -8.4353    2.7262   -0.2362 C   0  0
   -9.6233    3.5180    0.3147 C   0  0
  -10.4859    4.0113   -0.8502 C   0  0
   -9.6254    4.8634   -1.7872 C   0  0
   -8.4372    4.0325   -2.2772 C   0  0
   -3.3034    0.1254   -4.4961 H   0  0
   -2.4153    1.7124   -4.4911 H   0  0
   -2.9647    0.9826   -5.9839 H   0  0
   -6.2723    2.8164    1.4970 H   0  0
   -2.3674    0.0351    0.9119 H   0  0
   -2.3751    0.0442   -0.8843 H   0  0
   -1.3511    2.3081    0.9189 H   0  0
   -1.3602    2.3171   -0.8774 H   0  0
    0.0029   -0.0641    0.0061 H   0  0
    2.5215    0.2929   -0.9184 H   0  0
    2.5378    0.2839    0.8778 H   0  0
    3.5020    2.6141    0.8322 H   0  0
    2.6217    3.2665   -1.4043 H   0  0
    3.6892    2.0473   -2.1793 H   0  0
    4.7063    4.3174   -2.2673 H   0  0
    4.6207    4.4261   -0.4763 H   0  0
    6.8885    3.7233   -1.2251 H   0  0
    6.1705    2.3132   -2.0754 H   0  0
    7.0512    1.6614    0.1596 H   0  0
    5.9841    2.8798    0.9364 H   0  0
    4.9672    0.6106    1.0240 H   0  0
    5.0543    0.5019   -0.7670 H   0  0
   -7.8066    2.3820    0.5982 H   0  0
   -8.8047    1.8565   -0.7994 H   0  0
  -10.2256    2.8696    0.9680 H   0  0
   -9.2560    4.3808    0.8896 H   0  0
  -11.3170    4.6185   -0.4621 H   0  0
  -10.8857    3.1483   -1.4027 H   0  0
  -10.2285    5.1845   -2.6492 H   0  0
   -9.2562    5.7472   -1.2462 H   0  0
   -7.8092    4.6468   -2.9392 H   0  0
   -8.8067    3.1572   -2.8315 H   0  0
  1  2  1  0
  2  3  1  0
  3 23  2  0
  3  4  1  0
  4  5  2  0
  5  9  1  0
  5  6  1  0
  6  7  1  0
  6 22  2  0
  7  8  2  0
  8  9  1  0
  9 10  1  0
 10 11  1  0
 11 12  1  0
 12 13  1  0
 13 14  2  0
 13 15  1  0
 15 16  1  0
 16 21  1  0
 16 17  1  0
 17 18  1  0
 18 19  1  0
 19 20  1  0
 20 21  1  0
 22 23  1  0
 22 24  1  0
 24 29  1  0
 24 25  1  0
 25 26  1  0
 26 27  1  0
 27 28  1  0
 28 29  1  0
  1 30  1  0
  1 31  1  0
  1 32  1  0
  7 33  1  0
 10 34  1  0
 10 35  1  0
 11 36  1  0
 11 37  1  0
 12 38  1  0
 15 39  1  0
 15 40  1  0
 16 41  1  0
 17 42  1  0
 17 43  1  0
 18 44  1  0
 18 45  1  0
 19 46  1  0
 19 47  1  0
 20 48  1  0
 20 49  1  0
 21 50  1  0
 21 51  1  0
 25 52  1  0
 25 53  1  0
 26 54  1  0
 26 55  1  0
 27 56  1  0
 27 57  1  0
 28 58  1  0
 28 59  1  0
 29 60  1  0
 29 61  1  0
M  END
> <Name>
ZINC08945513

> <reference>
BDB50209829

> <quality>
0.759

> <status>
decoy

$$$$
ZINC14190538
  SciTegic06061311263D

 49 51  0  0  0  0            999 V2000
   -4.8240   -0.7369    0.0685 C   0  0
   -3.4794   -1.2845    0.0462 O   0  0
   -2.4590   -0.4024    0.0358 C   0  0
   -2.6877    0.7923    0.0451 O   0  0
   -1.0760   -0.8829    0.0133 C   0  0
   -0.7637   -2.2926   -0.0024 C   0  0
    0.5372   -2.6334   -0.0163 C   0  0
    1.3734   -1.0612   -0.0162 S   0  0
    0.0021   -0.0041    0.0020 C   0  0
   -0.0167    1.3819    0.0096 N   0  0
    1.1412    2.0716    0.0023 C   0  0
    2.1996    1.4795   -0.0110 O   0  0
    1.1207    3.5784    0.0106 C   0  0
    3.1966    3.7430    1.2470 C   0  0
    4.6486    4.2195    1.1641 C   0  0
    3.9752    6.0145   -0.3135 C   0  0
    2.5231    5.5380   -0.2305 C   0  0
    6.0510    6.1791    0.9229 C   0  0
    6.8071    5.6051    2.0934 C   0  0
    6.8202    6.2752    3.3028 C   0  0
    7.5083    5.7474    4.3788 C   0  0
    8.1949    4.5530    4.2426 C   0  0
    8.1861    3.8849    3.0289 C   0  0
    7.4914    4.4123    1.9553 C   0  0
    9.0458    2.3867    2.8558 Cl  0  0
    8.8724    4.0391    5.2924 F   0  0
    2.5131    4.0749   -0.0207 N   0  0
    4.6587    5.6825    0.9544 N   0  0
   -4.9094   -0.0891   -0.8164 H   0  0
   -4.8836   -0.0981    0.9620 H   0  0
   -5.5993   -1.5172    0.0758 H   0  0
   -1.5562   -3.0554   -0.0030 H   0  0
    0.9785   -3.6409   -0.0255 H   0  0
   -0.9156    1.8847    0.0208 H   0  0
    0.5798    3.9443   -0.8746 H   0  0
    0.6234    3.9360    0.9243 H   0  0
    2.6891    4.2486    2.0817 H   0  0
    3.1745    2.6543    1.4028 H   0  0
    5.1694    3.9788    2.1026 H   0  0
    5.1524    3.7238    0.3213 H   0  0
    3.9983    7.1031   -0.4696 H   0  0
    4.4819    5.5081   -1.1482 H   0  0
    2.0203    6.0340    0.6128 H   0  0
    2.0013    5.7785   -1.1685 H   0  0
    6.0505    7.2771    0.9884 H   0  0
    6.5312    5.8653   -0.0157 H   0  0
    6.2826    7.2290    3.4085 H   0  0
    7.5105    6.2762    5.3433 H   0  0
    7.4836    3.8823    0.9915 H   0  0
  1  2  1  0
  2  3  1  0
  3  4  2  0
  3  5  1  0
  5  9  2  0
  5  6  1  0
  6  7  2  0
  7  8  1  0
  8  9  1  0
  9 10  1  0
 10 11  1  0
 11 12  2  0
 11 13  1  0
 13 27  1  0
 14 15  1  0
 14 27  1  0
 15 28  1  0
 16 17  1  0
 16 28  1  0
 17 27  1  0
 18 19  1  0
 18 28  1  0
 19 24  2  0
 19 20  1  0
 20 21  2  0
 21 22  1  0
 22 23  2  0
 22 26  1  0
 23 24  1  0
 23 25  1  0
  1 29  1  0
  1 30  1  0
  1 31  1  0
  6 32  1  0
  7 33  1  0
 10 34  1  0
 13 35  1  0
 13 36  1  0
 14 37  1  0
 14 38  1  0
 15 39  1  0
 15 40  1  0
 16 41  1  0
 16 42  1  0
 17 43  1  0
 17 44  1  0
 18 45  1  0
 18 46  1  0
 20 47  1  0
 21 48  1  0
 24 49  1  0
M  END
> <Name>
ZINC14190538

> <reference>
BDB50209829

> <quality>
0.758

> <status>
decoy

$$$$
ZINC26190871
  SciTegic06061311263D

 57 59  0  0  0  0            999 V2000
   -0.9847    3.1280   -3.5809 C   0  0
   -0.3834    2.1183   -2.6012 C   0  0
   -0.9019    2.4054   -1.1907 C   0  0
   -0.3007    1.3957   -0.2109 C   0  0
   -0.7972    1.6706    1.1397 N   0  0
   -0.1913    2.5014    2.0380 C   0  0
   -0.9112    2.5276    3.1718 C   0  0
   -2.0540    1.6287    2.9580 C   0  0
   -1.9115    1.1354    1.6715 C   0  0
   -2.8424    0.1683    0.9865 C   0  0
   -3.0895    1.3278    3.8795 C   0  0
   -3.2962    2.1416    4.9757 C   0  0
   -2.5658    3.3663    5.1060 C   0  0
   -1.9863    4.3379    5.2095 N   0  0
   -4.2657    1.7508    6.0085 C   0  0
   -4.8864    0.7101    5.8977 O   0  0
   -4.4675    2.5451    7.0784 N   0  5
   -5.3918    2.1725    8.0631 N   0  0
   -5.5935    2.9668    9.1331 C   0  0
   -4.9729    4.0074    9.2439 O   0  0
   -6.5628    2.5761   10.1656 C   0  0
   -7.3283    1.4476   10.1815 C   0  0
   -8.1009    1.4334   11.2942 N   0  0
   -7.8693    2.5603   12.0557 C   0  0
   -6.8950    3.3237   11.3923 C   0  0
   -6.4663    4.5323   11.9347 C   0  0
   -6.9939    4.9686   13.1305 C   0  0
   -7.9521    4.2130   13.7900 C   0  0
   -8.3897    3.0178   13.2616 C   0  0
   -9.0491    0.3714   11.6398 C   0  0
    1.0815    3.2707    1.7944 C   0  0
   -0.6935    4.1464   -3.2843 H   0  0
   -2.0813    3.0429   -3.5698 H   0  0
   -0.6123    2.9222   -4.5953 H   0  0
   -0.6753    1.1002   -2.8984 H   0  0
    0.7133    2.2033   -2.6123 H   0  0
   -0.6099    3.4232   -0.8927 H   0  0
   -1.9985    2.3198   -1.1775 H   0  0
    0.7960    1.4807   -0.2220 H   0  0
   -0.5926    0.3776   -0.5081 H   0  0
   -0.6893    3.1070    4.0801 H   0  0
   -2.1656   -0.6437    0.6823 H   0  0
   -3.1080    0.7026    0.0624 H   0  0
   -3.7100   -0.1693    1.5724 H   0  0
   -3.7279    0.4461    3.7209 H   0  0
   -5.9172    1.2916    7.9693 H   0  0
   -7.3197    0.6663    9.4072 H   0  0
   -5.7102    5.1358   11.4112 H   0  0
   -6.6536    5.9205   13.5641 H   0  0
   -8.3666    4.5712   14.7439 H   0  0
   -9.1498    2.4263   13.7930 H   0  0
   -8.4254   -0.5345   11.6217 H   0  0
   -9.6949    0.3156   10.7511 H   0  0
   -9.6035    0.5067   12.5802 H   0  0
    0.8542    3.8353    0.8781 H   0  0
    1.7899    2.4833    1.4974 H   0  0
    1.4355    3.8969    2.6266 H   0  0
  1  2  1  0
  2  3  1  0
  3  4  1  0
  4  5  1  0
  5  9  1  0
  5  6  1  0
  6  7  2  0
  6 31  1  0
  7  8  1  0
  8  9  2  0
  8 11  1  0
  9 10  1  0
 11 12  2  0
 12 13  1  0
 12 15  1  0
 13 14  3  0
 15 16  2  0
 15 17  1  0
 17 18  1  0
 18 19  1  0
 19 20  2  0
 19 21  1  0
 21 25  1  0
 21 22  2  0
 22 23  1  0
 23 24  1  0
 23 30  1  0
 24 29  2  0
 24 25  1  0
 25 26  2  0
 26 27  1  0
 27 28  2  0
 28 29  1  0
  1 32  1  0
  1 33  1  0
  1 34  1  0
  2 35  1  0
  2 36  1  0
  3 37  1  0
  3 38  1  0
  4 39  1  0
  4 40  1  0
  7 41  1  0
 10 42  1  0
 10 43  1  0
 10 44  1  0
 11 45  1  0
 18 46  1  0
 22 47  1  0
 26 48  1  0
 27 49  1  0
 28 50  1  0
 29 51  1  0
 30 52  1  0
 30 53  1  0
 30 54  1  0
 31 55  1  0
 31 56  1  0
 31 57  1  0
M  CHG  1  17  -1
M  END
> <Name>
ZINC26190871

> <reference>
BDB50209829

> <quality>
0.756

> <status>
decoy

$$$$
