1UZE
  -OEChem-05052209093D

 45 46  0     1  0  0  0  0  0999 V2000
   40.1920   34.0940   44.9270 O   0  0  0  0  0  0  0  0  0  0  0  0
   41.4150   34.3910   44.6760 C   0  0  0  0  0  0  0  0  0  0  0  0
   41.7570   34.8740   43.4350 N   0  0  0  0  0  0  0  0  0  0  0  0
   42.4920   34.1960   45.8130 C   0  0  1  0  0  0  0  0  0  0  0  0
   41.7710   34.4720   47.1180 N   0  0  0  0  0  0  0  0  0  0  0  0
   40.6840   35.0230   42.3630 C   0  0  1  0  0  0  0  0  0  0  0  0
   43.0740   32.7750   45.7120 C   0  0  0  0  0  0  0  0  0  0  0  0
   41.1980   35.5090   47.4850 C   0  0  2  0  0  0  0  0  0  0  0  0
   41.5090   35.5880   41.1790 C   0  0  0  0  0  0  0  0  0  0  0  0
   40.0410   33.6030   42.0400 C   0  0  0  0  0  0  0  0  0  0  0  0
   38.8040   33.6840   41.7050 O   0  0  0  0  0  0  0  0  0  0  0  0
   40.6740   32.5860   42.1270 O   0  5  0  0  0  0  0  0  0  0  0  0
   42.2070   36.6640   47.5300 C   0  0  0  0  0  0  0  0  0  0  0  0
   42.8210   35.7280   41.5570 C   0  0  0  0  0  0  0  0  0  0  0  0
   40.5060   35.7720   48.7790 C   0  0  0  0  0  0  0  0  0  0  0  0
   43.2850   36.5220   48.1860 O   0  0  0  0  0  0  0  0  0  0  0  0
   41.9880   37.6940   46.9090 O   0  5  0  0  0  0  0  0  0  0  0  0
   43.0940   35.3080   42.9330 C   0  0  0  0  0  0  0  0  0  0  0  0
   39.3030   36.6650   49.0290 C   0  0  0  0  0  0  0  0  0  0  0  0
   38.7470   36.7910   50.4110 C   0  0  0  0  0  0  0  0  0  0  0  0
   38.5240   35.6000   51.2570 C   0  0  0  0  0  0  0  0  0  0  0  0
   37.9710   35.7450   52.5950 C   0  0  0  0  0  0  0  0  0  0  0  0
   37.6300   37.0810   53.1110 C   0  0  0  0  0  0  0  0  0  0  0  0
   37.8500   38.2740   52.2740 C   0  0  0  0  0  0  0  0  0  0  0  0
   38.4070   38.1300   50.9260 C   0  0  0  0  0  0  0  0  0  0  0  0
   43.3366   34.8608   45.6320 H   0  0  0  0  0  0  0  0  0  0  0  0
   41.0066   33.8206   47.2252 H   0  0  0  0  0  0  0  0  0  0  0  0
   39.9160   35.7141   42.7105 H   0  0  0  0  0  0  0  0  0  0  0  0
   43.8195   32.6307   46.4940 H   0  0  0  0  0  0  0  0  0  0  0  0
   42.2741   32.0447   45.8341 H   0  0  0  0  0  0  0  0  0  0  0  0
   43.5412   32.6417   44.7363 H   0  0  0  0  0  0  0  0  0  0  0  0
   40.4170   35.7659   46.7693 H   0  0  0  0  0  0  0  0  0  0  0  0
   41.2028   35.8609   40.1799 H   0  0  0  0  0  0  0  0  0  0  0  0
   43.5455   36.1195   40.8582 H   0  0  0  0  0  0  0  0  0  0  0  0
   40.1244   34.8350   49.1846 H   0  0  0  0  0  0  0  0  0  0  0  0
   41.2098   36.2130   49.4849 H   0  0  0  0  0  0  0  0  0  0  0  0
   43.4666   36.1254   43.5503 H   0  0  0  0  0  0  0  0  0  0  0  0
   43.7901   34.4706   42.9810 H   0  0  0  0  0  0  0  0  0  0  0  0
   39.5451   37.6894   48.7459 H   0  0  0  0  0  0  0  0  0  0  0  0
   38.4595   36.3140   48.4345 H   0  0  0  0  0  0  0  0  0  0  0  0
   38.7717   34.6177   50.8827 H   0  0  0  0  0  0  0  0  0  0  0  0
   37.8104   34.8722   53.2104 H   0  0  0  0  0  0  0  0  0  0  0  0
   37.2182   37.1875   54.1037 H   0  0  0  0  0  0  0  0  0  0  0  0
   37.6008   39.2537   52.6541 H   0  0  0  0  0  0  0  0  0  0  0  0
   38.5685   39.0024   50.3102 H   0  0  0  0  0  0  0  0  0  0  0  0
  1  2  2  0  0  0  0
  2  3  1  0  0  0  0
  2  4  1  0  0  0  0
  3  6  1  0  0  0  0
  3 18  1  0  0  0  0
  4  5  1  0  0  0  0
  4  7  1  0  0  0  0
  4 26  1  0  0  0  0
  5  8  1  0  0  0  0
  5 27  1  0  0  0  0
  6  9  1  0  0  0  0
  6 10  1  0  0  0  0
  6 28  1  0  0  0  0
  7 29  1  0  0  0  0
  7 30  1  0  0  0  0
  7 31  1  0  0  0  0
  8 13  1  0  0  0  0
  8 15  1  0  0  0  0
  8 32  1  0  0  0  0
  9 14  2  0  0  0  0
  9 33  1  0  0  0  0
 10 11  2  0  0  0  0
 10 12  1  0  0  0  0
 13 16  2  0  0  0  0
 13 17  1  0  0  0  0
 14 18  1  0  0  0  0
 14 34  1  0  0  0  0
 15 19  1  0  0  0  0
 15 35  1  0  0  0  0
 15 36  1  0  0  0  0
 18 37  1  0  0  0  0
 18 38  1  0  0  0  0
 19 20  1  0  0  0  0
 19 39  1  0  0  0  0
 19 40  1  0  0  0  0
 20 21  2  0  0  0  0
 20 25  1  0  0  0  0
 21 22  1  0  0  0  0
 21 41  1  0  0  0  0
 22 23  2  0  0  0  0
 22 42  1  0  0  0  0
 23 24  1  0  0  0  0
 23 43  1  0  0  0  0
 24 25  2  0  0  0  0
 24 44  1  0  0  0  0
 25 45  1  0  0  0  0
M  CHG  2  12  -1  17  -1
M  END
$$$$
