@<TRIPOS>MOLECULE
:3myg_ligand
57   60    1
SMALL
USER_CHARGES


@<TRIPOS>ATOM
      1 C1         -6.6090   28.8490   76.3490 C.ar      1 LIG        -0.1700 
      2 N1         -2.8040   32.8750   78.9790 N.pl3     1 LIG        -0.7800 
      3 O1         -1.9810   36.2590   84.9640 O.3       1 LIG        -0.6830 
      4 S1         -2.4400   33.0800   81.7570 S.3       1 LIG         0.1488 
      5 C2         -5.6390   29.7710   79.1770 C.ar      1 LIG        -0.6801 
      6 N2         -4.0140   31.6090   76.5240 N.2       1 LIG        -0.6258 
      7 C3         -5.1610   30.3470   80.3300 C.ar      1 LIG         0.3222 
      8 N3         -5.1630   30.2680   77.9830 N.pl3     1 LIG         0.6524 
      9 C4          1.1490   36.3440   84.0230 C.3       1 LIG         0.1500 
     10 N4         -7.7370   27.2780   75.2780 N.pl3     1 LIG        -0.1490 
     11 C5         -3.7390   31.8510   79.0280 C.ar      1 LIG         0.5803 
     12 N5         -8.4020   27.6320   76.3930 N.2       1 LIG        -0.5310 
     13 C6         -4.2480   31.2730   77.8630 C.ar      1 LIG         0.1729 
     14 N6         -1.4840   34.1490   82.3750 N.2       1 LIG        -0.4410 
     15 C7         -5.5580   29.8780   76.7210 C.ar      1 LIG        -0.4085 
     16 N7         -4.2480   31.3870   80.2250 N.2       1 LIG        -0.6148 
     17 C8         -7.7640   28.5980   77.0850 C.ar      1 LIG         0.2660 
     18 N8         -0.0080   36.5430   83.1470 N.4       1 LIG        -0.1000 
     19 C9         -4.8200   30.7450   75.8730 C.ar      1 LIG         0.2816 
     20 C10        -6.6150   27.9960   75.2040 C.ar      1 LIG         0.0360 
     21 C11        -2.1950   33.4680   80.0870 C.2       1 LIG         0.2381 
     22 C12        -1.2640   34.5130   80.0930 C.2       1 LIG        -0.2702 
     23 C13         0.1020   35.9410   81.7610 C.3       1 LIG         0.2650 
     24 C14        -0.8930   34.8650   81.3910 C.2       1 LIG         0.2432 
     25 C15        -0.8090   37.7650   83.3870 C.3       1 LIG         0.2700 
     26 C16         1.9300   35.0620   84.0150 C.3       1 LIG        -0.1800 
     27 C17        -1.7150   37.6350   84.6330 C.3       1 LIG         0.1450 
     28 C18        -1.8400   38.0430   82.3480 C.3       1 LIG        -0.1800 
     29 C19        -5.5830   29.8750   81.6780 C.3       1 LIG        -0.0650 
     30 C20         0.0680   39.0490   83.4020 C.3       1 LIG        -0.1800 
     31 HN1        -2.6016   33.2482   78.0596 H         1 LIG         0.3800 
     32 HO1        -2.6146   35.9141   84.3511 H         1 LIG         0.4180 
     33 H2         -6.3365   28.9439   79.1742 H         1 LIG         0.2854 
     34 H41         0.8545   36.5571   85.0513 H         1 LIG         0.0600 
     35 H42         1.8693   37.1183   83.7582 H         1 LIG         0.0600 
     36 HN4        -8.0666   26.5766   74.6300 H         1 LIG         0.3410 
     37 H8         -8.1718   28.9980   78.0006 H         1 LIG         0.0720 
     38 HN8        -0.6428   35.8649   83.5488 H         1 LIG         0.2900 
     39 H9         -4.8580   30.7864   74.8002 H         1 LIG         0.1194 
     40 H10        -5.9105   27.8931   74.3924 H         1 LIG         0.1350 
     41 H12        -0.8679   35.0012   79.2158 H         1 LIG         0.1661 
     42 H131        1.0964   35.5489   81.5781 H         1 LIG         0.0600 
     43 H132        0.0883   36.7471   81.0447 H         1 LIG         0.0600 
     44 H161        2.8428   35.1975   84.5960 H         1 LIG         0.0600 
     45 H162        1.3530   34.3261   84.5668 H         1 LIG         0.0600 
     46 H163        2.2552   34.7060   83.0420 H         1 LIG         0.0600 
     47 H171       -1.1685   38.0286   85.4899 H         1 LIG         0.0600 
     48 H172       -2.6476   38.2021   84.6034 H         1 LIG         0.0600 
     49 H181       -2.4374   38.9311   82.5627 H         1 LIG         0.0600 
     50 H182       -1.3682   38.2290   81.3921 H         1 LIG         0.0600 
     51 H183       -2.5126   37.1951   82.2393 H         1 LIG         0.0600 
     52 H191       -5.0259   30.3814   82.4669 H         1 LIG         0.0600 
     53 H192       -6.6454   30.0662   81.8301 H         1 LIG         0.0600 
     54 H193       -5.4084   28.8038   81.7687 H         1 LIG         0.0600 
     55 H201       -0.5376   39.9521   83.4908 H         1 LIG         0.0600 
     56 H202        0.7584   39.0613   84.2454 H         1 LIG         0.0600 
     57 H203        0.6583   39.1401   82.4890 H         1 LIG         0.0600 
@<TRIPOS>BOND
     1    1   15 1    
     2    1   17 ar   
     3    1   20 ar   
     4    2   11 1    
     5    2   21 1    
     6    2   31 1    
     7    3   27 1    
     8    3   32 1    
     9    4   14 1    
    10    4   21 1    
    11    5    7 ar   
    12    5    8 ar   
    13    5   33 1    
    14    6   13 ar   
    15    6   19 ar   
    16    7   16 ar   
    17    7   29 1    
    18    8   13 ar   
    19    8   15 ar   
    20    9   18 1    
    21    9   26 1    
    22    9   34 1    
    23    9   35 1    
    24   10   12 ar   
    25   10   20 ar   
    26   10   36 1    
    27   11   13 ar   
    28   11   16 ar   
    29   12   17 ar   
    30   14   24 2    
    31   15   19 ar   
    32   17   37 1    
    33   18   23 1    
    34   18   25 1    
    35   18   38 1    
    36   19   39 1    
    37   20   40 1    
    38   21   22 2    
    39   22   24 1    
    40   22   41 1    
    41   23   24 1    
    42   23   42 1    
    43   23   43 1    
    44   25   27 1    
    45   25   28 1    
    46   25   30 1    
    47   26   44 1    
    48   26   45 1    
    49   26   46 1    
    50   27   47 1    
    51   27   48 1    
    52   28   49 1    
    53   28   50 1    
    54   28   51 1    
    55   29   52 1    
    56   29   53 1    
    57   29   54 1    
    58   30   55 1    
    59   30   56 1    
    60   30   57 1    
@<TRIPOS>SUBSTRUCTURE
     1 LIG         1 GROUP             0       ****    0 ROOT    
