@<TRIPOS>MOLECULE
:1lpg_ligand
78   82    1
SMALL
USER_CHARGES


@<TRIPOS>ATOM
      1 C11         2.8550   10.4120   24.2780 C.ar      1 LIG         0.0267 
      2 C12         3.6530    9.8170   25.2820 C.ar      1 LIG        -0.0888 
      3 C13         4.7520    9.0450   24.9100 C.ar      1 LIG        -0.3541 
      4 C14         5.0520    8.8970   23.5340 C.ar      1 LIG         0.2860 
      5 C15         4.2710    9.5300   22.5180 C.ar      1 LIG         0.1233 
      6 C16         3.1590   10.2750   22.9060 C.ar      1 LIG        -0.2243 
      7 C17         4.8320    9.2430   21.2590 C.ar      1 LIG        -0.2567 
      8 N18         6.0680    8.2080   22.8800 N.pl3     1 LIG        -0.2434 
      9 C19         5.9460    8.4160   21.5380 C.ar      1 LIG        -0.0293 
     10 C20         7.0020    7.2760   23.5300 C.3       1 LIG         0.1175 
     11 C21         6.7890    7.9000   20.5480 C.2       1 LIG         0.6150 
     12 N22         6.2690    7.6920   19.3480 N.am      1 LIG        -0.5000 
     13 C23         7.2510    7.2910   18.3640 C.3       1 LIG         0.1950 
     14 C24         7.5000    5.7980   18.2260 C.ar      1 LIG        -0.1150 
     15 O27         7.9720    7.6720   20.7820 O.2       1 LIG        -0.5000 
     16 C28         8.1890    7.9280   24.1650 C.ar      1 LIG        -0.0800 
     17 C31         9.8130    7.7780   25.9590 C.ar      1 LIG        -0.1190 
     18 C32         8.6300    7.3110   25.3360 C.ar      1 LIG        -0.0900 
     19 C33         8.8710    9.0460   23.6240 C.ar      1 LIG         0.0130 
     20 C34        10.0370    9.5370   24.2490 C.ar      1 LIG        -0.1060 
     21 C35        10.5100    8.8920   25.4060 C.ar      1 LIG        -0.0900 
     22 C36        10.2440    7.0540   27.1730 C.2       1 LIG         0.8270 
     23 N37         9.2600    6.4140   27.8440 N.pl3     1 LIG        -0.8850 
     24 N38        11.5270    7.0460   27.5550 N.pl3     1 LIG        -0.8850 
     25 C39         8.6730    3.7670   18.8340 C.ar      1 LIG        -0.1150 
     26 C40         8.1110    3.0840   17.7320 C.ar      1 LIG         0.1225 
     27 C41         7.2000    3.7750   16.9070 C.ar      1 LIG        -0.1150 
     28 C42         6.8820    5.1260   17.1570 C.ar      1 LIG        -0.1150 
     29 C43         8.3680    5.1190   19.0860 C.ar      1 LIG        -0.1150 
     30 N44         8.4350    1.7110   17.4010 N.4       1 LIG         0.5100 
     31 C45         9.2820    1.7390   16.2070 C.3       1 LIG        -0.0575 
     32 C49         7.2210    0.9230   17.1210 C.3       1 LIG        -0.0575 
     33 C53         9.1540    0.8600   18.3650 C.3       1 LIG        -0.0575 
     34 O1          1.7490   11.1230   24.7030 O.3       1 LIG        -0.3000 
     35 C1          0.9430   11.7990   23.7470 C.3       1 LIG         0.1818 
     36 C2         -0.0120   12.5760   24.5990 C.ar      1 LIG        -0.0418 
     37 C3         -1.1420   13.1320   23.9890 C.ar      1 LIG        -0.1150 
     38 C4         -2.0870   13.8120   24.7850 C.ar      1 LIG        -0.1150 
     39 C5         -1.8730   13.9250   26.1750 C.ar      1 LIG        -0.1150 
     40 C6         -0.7240   13.3910   26.7840 C.ar      1 LIG        -0.1150 
     41 C7          0.2150   12.7180   25.9910 C.ar      1 LIG        -0.1150 
     42 H12         3.3997    9.9385   26.3257 H         1 LIG         0.1359 
     43 H13         5.3645    8.5567   25.6499 H         1 LIG         0.1796 
     44 H16         2.5531   10.7219   22.1336 H         1 LIG         0.1699 
     45 H17         4.4714    9.5869   20.3006 H         1 LIG         0.1377 
     46 H201        7.3301    6.4979   22.8423 H         1 LIG         0.0600 
     47 H202        6.4276    6.7399   24.2876 H         1 LIG         0.0600 
     48 HN22        5.3024    7.8648   19.1132 H         1 LIG         0.3000 
     49 H231        8.1959    7.8349   18.4239 H         1 LIG         0.0600 
     50 H232        6.8283    7.6421   17.4232 H         1 LIG         0.0600 
     51 H32         8.1073    6.4341   25.6828 H         1 LIG         0.1290 
     52 H33         8.5059    9.5273   22.7299 H         1 LIG         0.1190 
     53 H34        10.5750   10.3918   23.8906 H         1 LIG         0.1410 
     54 H35        11.4021    9.2657   25.8875 H         1 LIG         0.1290 
     55 H371        9.4644    6.0202   28.7621 H         1 LIG         0.4455 
     56 H372        8.2998    6.4454   27.5231 H         1 LIG         0.4455 
     57 H381       11.7644    6.6963   28.4768 H         1 LIG         0.4455 
     58 H382       12.2667    7.3554   26.9292 H         1 LIG         0.4455 
     59 H39         9.3581    3.2589   19.4840 H         1 LIG         0.1150 
     60 H41         6.7518    3.3211   16.0374 H         1 LIG         0.1150 
     61 H42         6.2115    5.6469   16.4890 H         1 LIG         0.1150 
     62 H43         8.7739    5.6949   19.8707 H         1 LIG         0.1150 
     63 H451        9.4605    0.7244   15.8714 H         1 LIG         0.0600 
     64 H452        8.8227    2.2684   15.3707 H         1 LIG         0.0600 
     65 H453       10.2386    2.2179   16.4163 H         1 LIG         0.0600 
     66 H491        7.4377   -0.1302   16.9330 H         1 LIG         0.0600 
     67 H492        6.5247    0.9656   17.9607 H         1 LIG         0.0600 
     68 H493        6.6873    1.2494   16.2297 H         1 LIG         0.0600 
     69 H531        9.3631   -0.1437   17.9907 H         1 LIG         0.0600 
     70 H532       10.1205    1.2957   18.6218 H         1 LIG         0.0600 
     71 H533        8.5912    0.7576   19.2946 H         1 LIG         0.0600 
     72 H11         0.3982   11.0831   23.1296 H         1 LIG         0.0300 
     73 H12         1.4767   12.4865   23.1024 H         1 LIG         0.0300 
     74 H3         -1.3027   13.0273   22.9258 H         1 LIG         0.1150 
     75 H4         -2.9658   14.2478   24.3328 H         1 LIG         0.1150 
     76 H5         -2.5722   14.4895   26.7744 H         1 LIG         0.1150 
     77 H6         -0.4319   13.6641   27.7610 H         1 LIG         0.1150 
     78 H7          1.1330   12.4008   26.4473 H         1 LIG         0.1150 
@<TRIPOS>BOND
     1    1    2 ar   
     2    1    6 ar   
     3    1   34 1    
     4    2    3 ar   
     5    2   42 1    
     6    3    4 ar   
     7    3   43 1    
     8    4    5 ar   
     9    4    8 ar   
    10    5    6 ar   
    11    5    7 ar   
    12    6   44 1    
    13    7    9 ar   
    14    7   45 1    
    15    8    9 ar   
    16    8   10 1    
    17    9   11 1    
    18   10   16 1    
    19   10   46 1    
    20   10   47 1    
    21   11   12 am   BACKBONE|DICT|INTERRES
    22   11   15 2    
    23   12   13 1    
    24   12   48 1    
    25   13   14 1    
    26   13   49 1    
    27   13   50 1    
    28   14   28 ar   
    29   14   29 ar   
    30   16   18 ar   
    31   16   19 ar   
    32   17   22 1    
    33   17   21 ar   
    34   17   18 ar   
    35   18   51 1    
    36   19   20 ar   
    37   19   52 1    
    38   20   21 ar   
    39   20   53 1    
    40   21   54 1    
    41   22   23 2    
    42   22   24 1    
    43   23   55 1    
    44   23   56 1    
    45   24   57 1    
    46   24   58 1    
    47   25   26 ar   
    48   25   29 ar   
    49   25   59 1    
    50   26   27 ar   
    51   26   30 1    
    52   27   28 ar   
    53   27   60 1    
    54   28   61 1    
    55   29   62 1    
    56   30   31 1    
    57   30   32 1    
    58   30   33 1    
    59   31   63 1    
    60   31   64 1    
    61   31   65 1    
    62   32   66 1    
    63   32   67 1    
    64   32   68 1    
    65   33   69 1    
    66   33   70 1    
    67   33   71 1    
    68   34   35 1    
    69   35   36 1    
    70   35   72 1    
    71   35   73 1    
    72   36   37 ar   
    73   36   41 ar   
    74   37   38 ar   
    75   37   74 1    
    76   38   39 ar   
    77   38   75 1    
    78   39   40 ar   
    79   39   76 1    
    80   40   41 ar   
    81   40   77 1    
    82   41   78 1    
@<TRIPOS>SUBSTRUCTURE
     1 LIG         1 GROUP             0       ****    0 ROOT    
