@<TRIPOS>MOLECULE
:1z6e_ligand
59   63    1
SMALL
USER_CHARGES


@<TRIPOS>ATOM
      1 F           2.6460   27.9550   53.1860 F         1 LIG        -0.2000 
      2 F1          2.6820   26.4560   54.6720 F         1 LIG        -0.2000 
      3 F2          3.5120   26.1060   52.7180 F         1 LIG        -0.2000 
      4 OT1        12.2170   27.6850   52.4430 O.3       1 LIG        -0.1220 
      5 O1          8.2020   29.3600   56.3580 O.2       1 LIG        -0.5000 
      6 N          12.1390   28.5390   51.4060 N.2       1 LIG        -0.4130 
      7 N1         10.3140   29.9370   50.4830 N.pl3     1 LIG        -0.9200 
      8 N2          6.8810   27.7950   54.3520 N.pl3     1 LIG         0.1189 
      9 N3          5.8980   27.1470   53.6570 N.2       1 LIG        -0.5310 
     10 N4          6.2450   30.3470   56.9360 N.am      1 LIG        -0.3850 
     11 C          11.0340   27.5590   53.0420 C.ar      1 LIG         0.2822 
     12 C1         10.0800   28.4000   52.3350 C.ar      1 LIG        -0.2052 
     13 C2         10.8570   28.9980   51.3150 C.2       1 LIG         0.6580 
     14 C3         10.5740   26.7930   54.2410 C.ar      1 LIG        -0.1150 
     15 C4          9.1700   26.8740   54.7090 C.ar      1 LIG        -0.1150 
     16 C5          8.2100   27.7260   53.9540 C.ar      1 LIG         0.0731 
     17 C6          8.6760   28.5020   52.7610 C.ar      1 LIG        -0.1150 
     18 C7          4.7110   27.4850   54.1830 C.ar      1 LIG         0.2230 
     19 C8          4.9120   28.3780   55.2720 C.ar      1 LIG        -0.3200 
     20 C9          6.3130   28.5580   55.3520 C.ar      1 LIG         0.0560 
     21 C10         3.3450   26.9950   53.6810 C.3       1 LIG         0.7150 
     22 C13         6.9760   29.4340   56.2410 C.2       1 LIG         0.6150 
     23 C14         6.7990   31.3390   57.7130 C.ar      1 LIG         0.0850 
     24 C15         7.5870   31.0050   58.8890 C.ar      1 LIG         0.2200 
     25 C16         8.1980   31.9800   59.7480 C.ar      1 LIG        -0.1150 
     26 C17         8.0100   33.3790   59.4090 C.ar      1 LIG         0.8441 
     27 C18         7.2340   33.7410   58.2070 C.ar      1 LIG        -0.1150 
     28 C19         6.6110   32.7370   57.3450 C.ar      1 LIG        -0.1150 
     29 N5          8.4670   34.3420   60.3390 N.pl3     1 LIG        -0.7951 
     30 C21         9.7120   34.9040   60.3640 C.ar      1 LIG        -0.2860 
     31 C22         9.7590   35.8160   61.4250 C.ar      1 LIG         0.1850 
     32 N6          8.5370   35.8010   62.0450 N.2       1 LIG        -0.5630 
     33 C25         7.7650   34.8940   61.3830 C.ar      1 LIG         0.2380 
     34 F3          7.7730   29.7180   59.1680 F         1 LIG        -0.2200 
     35 C11         6.3060   34.5810   61.7770 C.3       1 LIG         0.2650 
     36 N7          6.1390   34.1820   63.2100 N.4       1 LIG        -0.1000 
     37 C20         6.5330   35.1040   64.3010 C.3       1 LIG         0.0900 
     38 C23         6.3330   32.7740   63.5730 C.3       1 LIG         0.0900 
     39 H11         9.3105   30.0507   50.4652 H         1 LIG         0.3600 
     40 H12        10.7744   30.1593   49.6066 H         1 LIG         0.3600 
     41 HN4         5.2671   30.4345   56.7031 H         1 LIG         0.3000 
     42 H3         11.2807   26.1785   54.7762 H         1 LIG         0.1150 
     43 H4          8.8483   26.3154   55.5755 H         1 LIG         0.1150 
     44 H6          7.9846   29.1181   52.2700 H         1 LIG         0.1150 
     45 H8          4.1556   28.8365   55.8916 H         1 LIG         0.1500 
     46 H16         8.7601   31.6962   60.6181 H         1 LIG         0.1150 
     47 H18         7.0935   34.7854   57.9751 H         1 LIG         0.1150 
     48 H19         6.0376   33.0229   56.4761 H         1 LIG         0.1150 
     49 H21        10.4731   34.6357   59.6477 H         1 LIG         0.1870 
     50 H22        10.5641   36.4524   61.7611 H         1 LIG         0.0750 
     51 H111        5.8993   33.8057   61.1279 H         1 LIG         0.0600 
     52 H112        5.7135   35.4784   61.5964 H         1 LIG         0.0600 
     53 HN7         5.1337   34.2481   63.2782 H         1 LIG         0.2900 
     54 H201        6.0037   34.8740   65.2263 H         1 LIG         0.0600 
     55 H202        7.5978   34.9957   64.4862 H         1 LIG         0.0600 
     56 H203        6.3247   36.1410   64.0364 H         1 LIG         0.0600 
     57 H231        5.9846   32.5634   64.5849 H         1 LIG         0.0600 
     58 H232        5.8018   32.1160   62.8850 H         1 LIG         0.0600 
     59 H233        7.3933   32.5457   63.5141 H         1 LIG         0.0600 
@<TRIPOS>BOND
     1    1   21 1    
     2    2   21 1    
     3    3   21 1    
     4    4    6 1    
     5    4   11 1    
     6    5   22 2    
     7    6   13 2    
     8    7   13 1    
     9    7   39 1    
    10    7   40 1    
    11    8    9 ar   
    12    8   16 1    
    13    8   20 ar   
    14    9   18 ar   
    15   10   22 am   BACKBONE|DICT|INTERRES
    16   10   23 1    
    17   10   41 1    
    18   11   12 ar   
    19   11   14 ar   
    20   12   13 1    
    21   12   17 ar   
    22   14   15 ar   
    23   14   42 1    
    24   15   16 ar   
    25   15   43 1    
    26   16   17 ar   
    27   17   44 1    
    28   18   19 ar   
    29   18   21 1    
    30   19   20 ar   
    31   19   45 1    
    32   20   22 1    
    33   23   24 ar   
    34   23   28 ar   
    35   24   25 ar   
    36   24   34 1    
    37   25   26 ar   
    38   25   46 1    
    39   26   27 ar   
    40   26   29 1    
    41   27   28 ar   
    42   27   47 1    
    43   28   48 1    
    44   29   30 ar   
    45   29   33 ar   
    46   30   31 ar   
    47   30   49 1    
    48   31   32 ar   
    49   31   50 1    
    50   32   33 ar   
    51   33   35 1    
    52   35   36 1    
    53   35   51 1    
    54   35   52 1    
    55   36   37 1    
    56   36   38 1    
    57   36   53 1    
    58   37   54 1    
    59   37   55 1    
    60   37   56 1    
    61   38   57 1    
    62   38   58 1    
    63   38   59 1    
@<TRIPOS>SUBSTRUCTURE
     1 LIG         1 GROUP             0       ****    0 ROOT    
