@<TRIPOS>MOLECULE
:1nvq_ligand
63   70    1
SMALL
USER_CHARGES


@<TRIPOS>ATOM
      1 O37         8.2700    9.9540   17.2910 O.3       1 LIG        -0.6830 
      2 C9          7.7630    9.3100   18.4550 C.3       1 LIG         0.5200 
      3 N1          6.9180   10.1940   19.2270 N.am      1 LIG        -0.5000 
      4 C8          5.6270    9.8480   19.3640 C.2       1 LIG         0.6150 
      5 O5          4.7470   10.4480   19.9630 O.2       1 LIG        -0.5000 
      6 C7          5.5330    8.5650   18.6030 C.ar      1 LIG        -0.1150 
      7 C6          4.3050    7.7170   18.4090 C.ar      1 LIG        -0.0155 
      8 C5          2.9460    7.7620   18.7970 C.ar      1 LIG        -0.0155 
      9 C20         2.3100    6.5900   18.2270 C.ar      1 LIG        -0.0235 
     10 C1          0.9100    6.3140   18.4170 C.ar      1 LIG        -0.1150 
     11 C2          0.1610    7.2210   19.1810 C.ar      1 LIG        -0.1150 
     12 C3          0.7890    8.3860   19.7510 C.ar      1 LIG        -0.1150 
     13 C4          2.1380    8.6360   19.5570 C.ar      1 LIG        -0.1150 
     14 N3          3.2490    5.8750   17.5380 N.pl3     1 LIG        -0.0445 
     15 C19         4.5220    6.5310   17.6060 C.ar      1 LIG        -0.0235 
     16 C18         5.7570    6.2170   17.0610 C.ar      1 LIG        -0.0235 
     17 N2          6.2140    5.1320   16.2200 N.pl3     1 LIG        -0.0445 
     18 C17         7.6060    5.2810   15.9270 C.ar      1 LIG        -0.0235 
     19 C12         8.0400    6.4960   16.5930 C.ar      1 LIG        -0.0155 
     20 C13         9.3880    6.8940   16.4620 C.ar      1 LIG        -0.1150 
     21 C14        10.3170    6.1570   15.7160 C.ar      1 LIG        -0.1150 
     22 C15         9.8520    4.9520   15.0620 C.ar      1 LIG        -0.1150 
     23 C16         8.5300    4.5440   15.1750 C.ar      1 LIG        -0.1150 
     24 C11         6.9290    7.0700   17.2760 C.ar      1 LIG        -0.0155 
     25 C10         6.7180    8.2500   18.0830 C.ar      1 LIG        -0.1150 
     26 C21         5.2030    4.0730   15.7860 C.3       1 LIG         0.3225 
     27 O4          4.3030    3.8480   16.8550 O.3       1 LIG        -0.4000 
     28 C25         3.0380    4.4870   17.0640 C.3       1 LIG         0.2225 
     29 C24         2.2520    4.5570   15.6950 C.3       1 LIG        -0.1200 
     30 C23         3.0440    3.9210   14.5170 C.3       1 LIG         0.0056 
     31 N4          2.1780    4.1690   13.2170 N.4       1 LIG        -0.2000 
     32 C28         2.8230    3.5400   12.0170 C.3       1 LIG         0.1100 
     33 C22         4.4980    4.5210   14.4210 C.3       1 LIG         0.3944 
     34 O6          4.3430    5.9660   14.3770 O.3       1 LIG        -0.4000 
     35 C27         5.1750    6.5710   13.3990 C.3       1 LIG         0.1100 
     36 C26         5.8590    2.7140   15.5650 C.3       1 LIG        -0.1800 
     37 HO37        7.9556    9.4955   16.5228 H         1 LIG         0.4180 
     38 H9          8.5623    8.8856   19.0630 H         1 LIG         0.0600 
     39 HN1         7.2870   11.0496   19.6252 H         1 LIG         0.3000 
     40 H1          0.4464    5.4378   17.9880 H         1 LIG         0.1150 
     41 H2         -0.8923    7.0452   19.3425 H         1 LIG         0.1150 
     42 H3          0.1999    9.0772   20.3361 H         1 LIG         0.1150 
     43 H4          2.5535    9.5228   20.0028 H         1 LIG         0.1150 
     44 H13         9.7134    7.7945   16.9495 H         1 LIG         0.1150 
     45 H14        11.3447    6.4757   15.6291 H         1 LIG         0.1150 
     46 H15        10.5416    4.3678   14.4706 H         1 LIG         0.1150 
     47 H16         8.2405    3.6481   14.6540 H         1 LIG         0.1150 
     48 H25         2.4878    3.9437   17.8159 H         1 LIG         0.1000 
     49 H241        1.9958    5.5935   15.4667 H         1 LIG         0.0600 
     50 H242        1.3046    4.0345   15.8305 H         1 LIG         0.0600 
     51 H23         3.0991    2.8424   14.6690 H         1 LIG         0.0600 
     52 H41         2.0896    5.1635   13.0522 H         1 LIG         0.3100 
     53 H42         1.2413    3.8036   13.3588 H         1 LIG         0.3100 
     54 H281        2.0767    3.0993   11.3608 H         1 LIG         0.0600 
     55 H282        3.4012    4.2766   11.4601 H         1 LIG         0.0600 
     56 H283        3.4901    2.7263   12.3030 H         1 LIG         0.0600 
     57 H22         5.0508    4.1378   13.5614 H         1 LIG         0.0300 
     58 H271        5.0944    7.6561   13.4545 H         1 LIG         0.0300 
     59 H272        6.2178    6.2862   13.5220 H         1 LIG         0.0300 
     60 H273        4.8135    6.2475   12.4391 H         1 LIG         0.0300 
     61 H261        5.0989    1.9328   15.5423 H         1 LIG         0.0600 
     62 H262        6.3971    2.6739   14.6207 H         1 LIG         0.0600 
     63 H263        6.5441    2.5099   16.3863 H         1 LIG         0.0600 
@<TRIPOS>BOND
     1    1    2 1    
     2    1   37 1    
     3    2    3 1    
     4    2   25 1    
     5    2   38 1    
     6    3    4 am   BACKBONE|DICT|INTERRES
     7    3   39 1    
     8    4    5 2    
     9    4    6 1    
    10    6    7 ar   
    11    6   25 ar   
    12    7    8 ar   
    13    7   15 ar   
    14    8    9 ar   
    15    8   13 ar   
    16    9   10 ar   
    17    9   14 ar   
    18   10   11 ar   
    19   10   40 1    
    20   11   12 ar   
    21   11   41 1    
    22   12   13 ar   
    23   12   42 1    
    24   13   43 1    
    25   14   15 ar   
    26   14   28 1    
    27   15   16 ar   
    28   16   17 ar   
    29   16   24 ar   
    30   17   18 ar   
    31   17   26 1    
    32   18   19 ar   
    33   18   23 ar   
    34   19   20 ar   
    35   19   24 ar   
    36   20   21 ar   
    37   20   44 1    
    38   21   22 ar   
    39   21   45 1    
    40   22   23 ar   
    41   22   46 1    
    42   23   47 1    
    43   24   25 ar   
    44   26   27 1    
    45   26   33 1    
    46   26   36 1    
    47   27   28 1    
    48   28   29 1    
    49   28   48 1    
    50   29   30 1    
    51   29   49 1    
    52   29   50 1    
    53   30   31 1    
    54   30   33 1    
    55   30   51 1    
    56   31   32 1    
    57   31   52 1    
    58   31   53 1    
    59   32   54 1    
    60   32   55 1    
    61   32   56 1    
    62   33   34 1    
    63   33   57 1    
    64   34   35 1    
    65   35   58 1    
    66   35   59 1    
    67   35   60 1    
    68   36   61 1    
    69   36   62 1    
    70   36   63 1    
@<TRIPOS>SUBSTRUCTURE
     1 LIG         1 GROUP             0       ****    0 ROOT    
