:3d6q_ligand
                    3D
 Schrodinger Suite 2020-1.
 44 46  0  0  1  0            999 V2000
   34.8340   -4.5860   12.4600 C   0  0  0  0  0  0
   36.0120   -4.5010   13.1970 C   0  0  0  0  0  0
   36.8260   -3.3760   13.0620 C   0  0  0  0  0  0
   36.4610   -2.3090   12.2020 N   0  0  0  0  0  0
   34.4690   -3.5520   11.5980 N   0  0  0  0  0  0
   43.4960   -2.5520   14.1130 C   0  0  0  0  0  0
   42.2910   -3.5030   14.1750 C   0  0  0  0  0  0
   40.9410   -2.7630   14.0450 C   0  0  0  0  0  0
   43.4070   -1.4530   15.1850 C   0  0  0  0  0  0
   41.9510   -1.1790   15.5870 C   0  0  0  0  0  0
   41.0360   -1.3370   14.4350 N   0  3  0  0  0  0
   39.7650   -0.7660   14.9250 C   0  0  0  0  0  0
   38.5330   -0.8320   13.9700 C   0  0  2  0  0  0
   38.6600   -1.3680   12.6150 O   0  0  0  0  0  0
   38.0070    0.5470   13.6410 C   0  0  2  0  0  0
   37.4740    1.2430   14.7580 O   0  0  0  0  0  0
   36.8730    0.2110   12.7040 C   0  0  1  0  0  0
   36.8750    1.2950   11.7730 O   0  0  0  0  0  0
   37.3430   -1.1040   12.0380 C   0  0  2  0  0  0
   34.1020   -5.5690   12.5560 O   0  0  0  0  0  0
   35.2700   -2.4080   11.4660 C   0  0  0  0  0  0
   34.9100   -1.5120   10.7080 O   0  0  0  0  0  0
   36.3036   -5.3075   13.8542 H   0  0  0  0  0  0
   37.7465   -3.3822   13.6224 H   0  0  0  0  0  0
   33.6300   -3.6442   11.0330 H   0  0  0  0  0  0
   43.5247   -2.0908   13.1247 H   0  0  0  0  0  0
   44.4301   -3.1052   14.2166 H   0  0  0  0  0  0
   42.3180   -4.0301   15.1299 H   0  0  0  0  0  0
   42.3709   -4.2736   13.4075 H   0  0  0  0  0  0
   40.1880   -3.2825   14.6401 H   0  0  0  0  0  0
   40.6116   -2.8142   13.0078 H   0  0  0  0  0  0
   43.8747   -0.5440   14.8048 H   0  0  0  0  0  0
   43.9737   -1.7409   16.0713 H   0  0  0  0  0  0
   41.9112   -0.1732   16.0095 H   0  0  0  0  0  0
   41.6579   -1.8596   16.3898 H   0  0  0  0  0  0
   41.3836   -0.7945   13.6572 H   0  0  0  0  0  0
   39.9387    0.2777   15.1935 H   0  0  0  0  0  0
   39.4798   -1.2578   15.8579 H   0  0  0  0  0  0
   37.7536   -1.3638   14.5185 H   0  0  0  0  0  0
   38.7945    1.1367   13.1655 H   0  0  0  0  0  0
   36.7805    0.7241   15.1410 H   0  0  0  0  0  0
   35.9022    0.0730   13.1781 H   0  0  0  0  0  0
   36.5034    2.0430   12.2185 H   0  0  0  0  0  0
   37.4577   -1.0042   10.9635 H   0  0  0  0  0  0
  1  2  1  0  0  0
  1  5  1  0  0  0
  1 20  2  0  0  0
  2  3  2  0  0  0
  2 23  1  0  0  0
  3  4  1  0  0  0
  3 24  1  0  0  0
  4 19  1  0  0  0
  4 21  1  0  0  0
  5 21  1  0  0  0
  5 25  1  0  0  0
  6  7  1  0  0  0
  6  9  1  0  0  0
  6 26  1  0  0  0
  6 27  1  0  0  0
  7  8  1  0  0  0
  7 28  1  0  0  0
  7 29  1  0  0  0
  8 11  1  0  0  0
  8 30  1  0  0  0
  8 31  1  0  0  0
  9 10  1  0  0  0
  9 32  1  0  0  0
  9 33  1  0  0  0
 10 11  1  0  0  0
 10 34  1  0  0  0
 10 35  1  0  0  0
 11 12  1  0  0  0
 11 36  1  0  0  0
 12 13  1  0  0  0
 12 37  1  0  0  0
 12 38  1  0  0  0
 13 14  1  0  0  0
 13 15  1  0  0  0
 13 39  1  0  0  0
 14 19  1  0  0  0
 15 16  1  0  0  0
 15 17  1  0  0  0
 15 40  1  0  0  0
 16 41  1  0  0  0
 17 18  1  0  0  0
 17 19  1  0  0  0
 17 42  1  0  0  0
 18 43  1  0  0  0
 19 44  1  0  0  0
 21 22  2  0  0  0
M  CHG  1  11   1
M  END
> <s_pdb_PDB_ID>


> <s_pdb_PDB_CLASSIFICATION>
3D6Q_PROTEIN

> <s_pdb_PDB_format_version>
3.0

> <b_ppw_prepared>
1

> <s_ppw_prepared_with_version>
2020-1

> <b_ppw_created_disulfur>
1

> <s_ppw_het_states>
eJxdkksOwjAQQ68SdV2qTj4u4SqoN6jYsap6d5KZCidhgZ6e0Lh2OSeZXu5dPiLxObt1n13F/Me0EoXoiYEYiYkI4kYsaXIj08A0MA1MA9PANDANTAPTwG7QtMp3Z6t7P4uJWq8T9ZTnNjaL50I2jnAne5BeNI39KILeiKNobkQViSKpaG5AxUaxjb+wcrlb3kYX7m/T94J7YCwH6xJGwS6K+o560dywkXPdtJjHupTYc/IRufw9ZQlB5Jrd53sc9r3v1w8tZpFb

> <r_ff_Potential_Energy-OPLS3e>
-100581.727960913

> <r_ff_RMS_Derivative-OPLS3e>
0.0438434549557761

> <b_ff_Minimization_Converged-OPLS3e>
1

> <r_i_Potential_Energy-OPLS_2005>
-3286.1069809603

> <r_i_RMS_Derivative-OPLS_2005>
0.0393504257112465

> <r_i_Max_Derivative-OPLS_2005>
0.758392583959276

> <r_i_Stretch_Energy-OPLS_2005>
2.65958729706094

> <r_i_Bend_Energy-OPLS_2005>
69.0462957357307

> <r_i_LJ-14_Energy-OPLS_2005>
170.133904882389

> <r_i_El-14_Energy-OPLS_2005>
-102.705206162876

> <r_i_Van_der_Waals_Energy-OPLS_2005>
-232.319065863505

> <r_i_Electrostatic_Energy-OPLS_2005>
-3214.83531803795

> <r_i_Dihedral_Energy-OPLS_2005>
21.9128211888556

> <r_i_target_temperature>
298

> <s_user_Residue_ID>
_:1

$$$$
