@<TRIPOS>MOLECULE
:3d6q_ligand
44   46    1
SMALL
USER_CHARGES


@<TRIPOS>ATOM
      1 C4         34.8340   -4.5860   12.4600 C.ar      1 LIG         0.4500 
      2 C5         36.0120   -4.5010   13.1970 C.ar      1 LIG        -0.0700 
      3 C6         36.8260   -3.3760   13.0620 C.ar      1 LIG         0.0800 
      4 N1         36.4610   -2.3090   12.2020 N.pl3     1 LIG        -0.6000 
      5 N3         34.4690   -3.5520   11.5980 N.pl3     1 LIG        -0.5100 
      6 CAV        43.4960   -2.5520   14.1130 C.3       1 LIG        -0.1200 
      7 CAK        42.2910   -3.5030   14.1750 C.3       1 LIG        -0.1200 
      8 CAM        40.9410   -2.7630   14.0450 C.3       1 LIG         0.1500 
      9 CAJ        43.4070   -1.4530   15.1850 C.3       1 LIG        -0.1200 
     10 CAL        41.9510   -1.1790   15.5870 C.3       1 LIG         0.1500 
     11 NBA        41.0360   -1.3370   14.4350 N.4       1 LIG        -0.1000 
     12 C5'        39.7650   -0.7660   14.9250 C.3       1 LIG        -0.0744 
     13 C4'        38.5330   -0.8320   13.9700 C.3       1 LIG         0.3944 
     14 O4'        38.6600   -1.3680   12.6150 O.3       1 LIG        -0.4000 
     15 C3'        38.0070    0.5470   13.6410 C.3       1 LIG         0.2050 
     16 O3'        37.4740    1.2430   14.7580 O.3       1 LIG        -0.6830 
     17 C2'        36.8730    0.2110   12.7040 C.3       1 LIG         0.2050 
     18 O2'        36.8750    1.2950   11.7730 O.3       1 LIG        -0.6830 
     19 C1'        37.3430   -1.1040   12.0380 C.3       1 LIG         0.5100 
     20 O4         34.1020   -5.5690   12.5560 O.2       1 LIG        -0.4200 
     21 C2         35.2700   -2.4080   11.4660 C.ar      1 LIG         0.5000 
     22 O2         34.9100   -1.5120   10.7080 O.2       1 LIG        -0.4000 
     23 H5         36.3036   -5.3075   13.8542 H         1 LIG         0.1000 
     24 H6         37.7465   -3.3822   13.6224 H         1 LIG         0.1000 
     25 HN3        33.6300   -3.6442   11.0330 H         1 LIG         0.3600 
     26 HAV1       43.5247   -2.0908   13.1247 H         1 LIG         0.0600 
     27 HAV2       44.4301   -3.1052   14.2166 H         1 LIG         0.0600 
     28 HAK1       42.3180   -4.0301   15.1299 H         1 LIG         0.0600 
     29 HAK2       42.3709   -4.2736   13.4075 H         1 LIG         0.0600 
     30 HAM1       40.1880   -3.2825   14.6401 H         1 LIG         0.0600 
     31 HAM2       40.6116   -2.8142   13.0078 H         1 LIG         0.0600 
     32 HAJ1       43.8747   -0.5440   14.8048 H         1 LIG         0.0600 
     33 HAJ2       43.9737   -1.7409   16.0713 H         1 LIG         0.0600 
     34 HAL1       41.9112   -0.1732   16.0095 H         1 LIG         0.0600 
     35 HAL2       41.6579   -1.8596   16.3898 H         1 LIG         0.0600 
     36 HNBA       41.3836   -0.7945   13.6572 H         1 LIG         0.2900 
     37 H5'1       39.9387    0.2777   15.1935 H         1 LIG         0.0600 
     38 H5'2       39.4798   -1.2578   15.8579 H         1 LIG         0.0600 
     39 H4'        37.7536   -1.3638   14.5185 H         1 LIG         0.0300 
     40 H3'        38.7945    1.1367   13.1655 H         1 LIG         0.0600 
     41 HO3'       36.7805    0.7241   15.1410 H         1 LIG         0.4180 
     42 H2'        35.9022    0.0730   13.1781 H         1 LIG         0.0600 
     43 HO2'       36.5034    2.0430   12.2185 H         1 LIG         0.4180 
     44 H1'        37.4577   -1.0042   10.9635 H         1 LIG         0.1000 
@<TRIPOS>BOND
     1    1    2 ar   
     2    1    5 ar   
     3    1   20 2    
     4    2    3 ar   
     5    2   23 1    
     6    3    4 ar   
     7    3   24 1    
     8    4   19 1    
     9    4   21 ar   
    10    5   21 ar   
    11    5   25 1    
    12    6    7 1    
    13    6    9 1    
    14    6   26 1    
    15    6   27 1    
    16    7    8 1    
    17    7   28 1    
    18    7   29 1    
    19    8   11 1    
    20    8   30 1    
    21    8   31 1    
    22    9   10 1    
    23    9   32 1    
    24    9   33 1    
    25   10   11 1    
    26   10   34 1    
    27   10   35 1    
    28   11   12 1    
    29   11   36 1    
    30   12   13 1    
    31   12   37 1    
    32   12   38 1    
    33   13   14 1    
    34   13   15 1    
    35   13   39 1    
    36   14   19 1    
    37   15   16 1    
    38   15   17 1    
    39   15   40 1    
    40   16   41 1    
    41   17   18 1    
    42   17   19 1    
    43   17   42 1    
    44   18   43 1    
    45   19   44 1    
    46   21   22 2    
@<TRIPOS>SUBSTRUCTURE
     1 LIG         1 GROUP             0       ****    0 ROOT    
