@<TRIPOS>MOLECULE
:3ozs_ligand
50   52    1
SMALL
USER_CHARGES


@<TRIPOS>ATOM
      1 C1        -20.0310   30.8770   13.1890 C.3       1 LIG         0.2050 
      2 C2        -18.6110   31.4540   13.4010 C.3       1 LIG         0.2050 
      3 C3        -17.7330   30.1670   13.5090 C.3       1 LIG         0.0270 
      4 O4        -18.2840   29.3890   12.4280 O.3       1 LIG        -0.4000 
      5 C5        -19.6660   29.7520   12.1530 C.3       1 LIG         0.2390 
      6 C6        -19.8220   30.2710   10.7650 C.2       1 LIG        -0.1840 
      7 N7        -16.3340   30.3350   13.2220 N.pl3     1 LIG         0.1220 
      8 O8        -20.5670   30.2580   14.3450 O.3       1 LIG        -0.6830 
      9 O9        -18.5430   32.2570   14.5860 O.3       1 LIG        -0.6830 
     10 C10       -20.6290   29.6600    9.9150 C.2       1 LIG        -0.1150 
     11 C11       -15.7260   31.2980   12.3440 C.ar      1 LIG         0.2750 
     12 C12       -15.3430   29.5540   13.7340 C.ar      1 LIG        -0.2860 
     13 C13       -14.1910   30.0560   13.1430 C.ar      1 LIG         0.3900 
     14 N14       -14.4220   31.1230   12.2990 N.2       1 LIG        -0.5630 
     15 C15       -12.8400   29.4920   13.3760 C.3       1 LIG         0.4700 
     16 C16       -20.8200   30.1560    8.4790 C.3       1 LIG         0.0800 
     17 N17       -21.7610   29.2760    7.7910 N.am      1 LIG        -0.5000 
     18 C18       -22.5620   29.7310    6.8260 C.2       1 LIG         0.6150 
     19 C19       -23.6450   28.8760    6.2250 C.ar      1 LIG        -0.1150 
     20 C20       -23.6700   27.4750    6.4970 C.ar      1 LIG         0.1500 
     21 C21       -24.7550   26.7570    5.9300 C.ar      1 LIG         0.1500 
     22 C22       -25.7110   27.3220    5.1350 C.ar      1 LIG        -0.1150 
     23 C23       -25.6610   28.7390    4.9450 C.ar      1 LIG         0.0900 
     24 C24       -24.6070   29.5200    5.4730 C.ar      1 LIG        -0.1150 
     25 N25       -26.6670   29.3780    4.1410 N.pl3     1 LIG         0.6500 
     26 O26       -22.7190   26.8280    7.1590 O.3       1 LIG        -0.4600 
     27 O27       -24.8010   25.3950    6.1270 O.3       1 LIG        -0.4600 
     28 O28       -22.3960   30.9300    6.4020 O.2       1 LIG        -0.5000 
     29 F29       -12.0300   29.4730   12.3110 F         1 LIG        -0.2000 
     30 F30       -12.0910   30.1300   14.2860 F         1 LIG        -0.2000 
     31 F31       -12.7590   28.1620   13.5920 F         1 LIG        -0.2000 
     32 O32       -27.5020   28.7550    3.5290 O.co2     1 LIG        -0.3700 
     33 O33       -26.6240   30.5930    4.0930 O.co2     1 LIG        -0.3700 
     34 H1        -20.7409   31.6101   12.8036 H         1 LIG         0.0600 
     35 H2        -18.3270   32.0465   12.5332 H         1 LIG         0.0600 
     36 H3        -17.7628   29.6046   14.4120 H         1 LIG         0.1000 
     37 H5        -20.2976   28.8731   12.2975 H         1 LIG         0.0300 
     38 H6        -19.2602   31.1467   10.4786 H         1 LIG         0.1150 
     39 HO8       -19.8859   29.7487   14.7669 H         1 LIG         0.4180 
     40 HO9       -18.5086   31.6804   15.3472 H         1 LIG         0.4180 
     41 H10       -21.1851   28.7827   10.2161 H         1 LIG         0.1150 
     42 H11       -16.2667   32.0363   11.7813 H         1 LIG         0.0780 
     43 H12       -15.5145   28.7266   14.3968 H         1 LIG         0.1870 
     44 H161      -19.8792   30.2090    7.9436 H         1 LIG         0.0600 
     45 H162      -21.2004   31.1767    8.5507 H         1 LIG         0.0600 
     46 HN17      -21.8455   28.3155    8.0951 H         1 LIG         0.3000 
     47 H22       -26.5166   26.7342    4.7242 H         1 LIG         0.1150 
     48 H24       -24.5629   30.5867    5.3057 H         1 LIG         0.1150 
     49 HO26      -22.8920   25.9126    7.3052 H         1 LIG         0.3100 
     50 HO27      -25.3614   25.0036    5.4795 H         1 LIG         0.3100 
@<TRIPOS>BOND
     1    1    2 1    
     2    1    5 1    
     3    1    8 1    
     4    1   34 1    
     5    2    3 1    
     6    2    9 1    
     7    2   35 1    
     8    3    4 1    
     9    3    7 1    
    10    3   36 1    
    11    4    5 1    
    12    5    6 1    
    13    5   37 1    
    14    6   10 2    
    15    6   38 1    
    16    7   11 ar   
    17    7   12 ar   
    18    8   39 1    
    19    9   40 1    
    20   10   16 1    
    21   10   41 1    
    22   11   14 ar   
    23   11   42 1    
    24   12   13 ar   
    25   12   43 1    
    26   13   14 ar   
    27   13   15 1    
    28   15   29 1    
    29   15   30 1    
    30   15   31 1    
    31   16   17 1    
    32   16   44 1    
    33   16   45 1    
    34   17   18 am   BACKBONE|DICT|INTERRES
    35   17   46 1    
    36   18   19 1    
    37   18   28 2    
    38   19   20 ar   
    39   19   24 ar   
    40   20   21 ar   
    41   20   26 1    
    42   21   22 ar   
    43   21   27 1    
    44   22   23 ar   
    45   22   47 1    
    46   23   24 ar   
    47   23   25 1    
    48   24   48 1    
    49   25   32 1    
    50   25   33 2    
    51   26   49 1    
    52   27   50 1    
@<TRIPOS>SUBSTRUCTURE
     1 LIG         1 GROUP             0       ****    0 ROOT    
