:3ozs_ligand
                    3D
 Schrodinger Suite 2020-1.
 50 52  0  0  1  0            999 V2000
  -20.0310   30.8770   13.1890 C   0  0  1  0  0  0
  -18.6110   31.4540   13.4010 C   0  0  2  0  0  0
  -17.7330   30.1670   13.5090 C   0  0  1  0  0  0
  -18.2840   29.3890   12.4280 O   0  0  0  0  0  0
  -19.6660   29.7520   12.1530 C   0  0  2  0  0  0
  -19.8220   30.2710   10.7650 C   0  0  0  0  0  0
  -16.3340   30.3350   13.2220 N   0  0  0  0  0  0
  -20.5670   30.2580   14.3450 O   0  0  0  0  0  0
  -18.5430   32.2570   14.5860 O   0  0  0  0  0  0
  -20.6290   29.6600    9.9150 C   0  0  0  0  0  0
  -15.7260   31.2980   12.3440 C   0  0  0  0  0  0
  -15.3430   29.5540   13.7340 C   0  0  0  0  0  0
  -14.1910   30.0560   13.1430 C   0  0  0  0  0  0
  -14.4220   31.1230   12.2990 N   0  0  0  0  0  0
  -12.8400   29.4920   13.3760 C   0  0  0  0  0  0
  -20.8200   30.1560    8.4790 C   0  0  0  0  0  0
  -21.7610   29.2760    7.7910 N   0  0  0  0  0  0
  -22.5620   29.7310    6.8260 C   0  0  0  0  0  0
  -23.6450   28.8760    6.2250 C   0  0  0  0  0  0
  -23.6700   27.4750    6.4970 C   0  0  0  0  0  0
  -24.7550   26.7570    5.9300 C   0  0  0  0  0  0
  -25.7110   27.3220    5.1350 C   0  0  0  0  0  0
  -25.6610   28.7390    4.9450 C   0  0  0  0  0  0
  -24.6070   29.5200    5.4730 C   0  0  0  0  0  0
  -26.6670   29.3780    4.1410 N   0  3  0  0  0  0
  -22.7190   26.8280    7.1590 O   0  0  0  0  0  0
  -24.8010   25.3950    6.1270 O   0  0  0  0  0  0
  -22.3960   30.9300    6.4020 O   0  0  0  0  0  0
  -12.0300   29.4730   12.3110 F   0  0  0  0  0  0
  -12.0910   30.1300   14.2860 F   0  0  0  0  0  0
  -12.7590   28.1620   13.5920 F   0  0  0  0  0  0
  -27.5020   28.7550    3.5290 O   0  5  0  0  0  0
  -26.6240   30.5930    4.0930 O   0  0  0  0  0  0
  -20.7409   31.6101   12.8036 H   0  0  0  0  0  0
  -18.3270   32.0465   12.5332 H   0  0  0  0  0  0
  -17.7628   29.6046   14.4120 H   0  0  0  0  0  0
  -20.2976   28.8731   12.2975 H   0  0  0  0  0  0
  -19.2602   31.1467   10.4786 H   0  0  0  0  0  0
  -19.8859   29.7487   14.7669 H   0  0  0  0  0  0
  -18.5086   31.6804   15.3472 H   0  0  0  0  0  0
  -21.1851   28.7827   10.2161 H   0  0  0  0  0  0
  -16.2667   32.0363   11.7813 H   0  0  0  0  0  0
  -15.5145   28.7266   14.3968 H   0  0  0  0  0  0
  -19.8792   30.2090    7.9436 H   0  0  0  0  0  0
  -21.2004   31.1767    8.5507 H   0  0  0  0  0  0
  -21.8455   28.3155    8.0951 H   0  0  0  0  0  0
  -26.5166   26.7342    4.7242 H   0  0  0  0  0  0
  -24.5629   30.5867    5.3057 H   0  0  0  0  0  0
  -22.8920   25.9126    7.3052 H   0  0  0  0  0  0
  -25.3614   25.0036    5.4795 H   0  0  0  0  0  0
  1  2  1  0  0  0
  1  5  1  0  0  0
  1  8  1  0  0  0
  1 34  1  0  0  0
  2  3  1  0  0  0
  2  9  1  0  0  0
  2 35  1  0  0  0
  3  4  1  0  0  0
  3  7  1  0  0  0
  3 36  1  0  0  0
  4  5  1  0  0  0
  5  6  1  0  0  0
  5 37  1  0  0  0
  6 10  2  0  0  0
  6 38  1  0  0  0
  7 11  1  0  0  0
  7 12  1  0  0  0
  8 39  1  0  0  0
  9 40  1  0  0  0
 10 16  1  0  0  0
 10 41  1  0  0  0
 11 14  2  0  0  0
 11 42  1  0  0  0
 12 13  2  0  0  0
 12 43  1  0  0  0
 13 14  1  0  0  0
 13 15  1  0  0  0
 15 29  1  0  0  0
 15 30  1  0  0  0
 15 31  1  0  0  0
 16 17  1  0  0  0
 16 44  1  0  0  0
 16 45  1  0  0  0
 17 18  1  0  0  0
 17 46  1  0  0  0
 18 19  1  0  0  0
 18 28  2  0  0  0
 19 20  2  0  0  0
 19 24  1  0  0  0
 20 21  1  0  0  0
 20 26  1  0  0  0
 21 22  2  0  0  0
 21 27  1  0  0  0
 22 23  1  0  0  0
 22 47  1  0  0  0
 23 24  2  0  0  0
 23 25  1  0  0  0
 24 48  1  0  0  0
 25 32  1  0  0  0
 25 33  2  0  0  0
 26 49  1  0  0  0
 27 50  1  0  0  0
M  CHG  2  25   1  32  -1
M  END
> <s_pdb_PDB_ID>


> <s_pdb_PDB_CLASSIFICATION>
3OZS_PROTEIN

> <s_pdb_PDB_format_version>
3.0

> <b_ppw_prepared>
1

> <s_ppw_prepared_with_version>
2020-1

> <b_ppw_created_disulfur>
1

> <r_ff_Potential_Energy-OPLS3e>
-24504.3663232643

> <r_ff_RMS_Derivative-OPLS3e>
0.0443609839770415

> <b_ff_Minimization_Converged-OPLS3e>
1

> <r_i_Potential_Energy-OPLS_2005>
-5695.17887464081

> <r_i_RMS_Derivative-OPLS_2005>
0.0494886658690456

> <r_i_Max_Derivative-OPLS_2005>
1.49683582615804

> <r_i_Stretch_Energy-OPLS_2005>
4.29856063847112

> <r_i_Bend_Energy-OPLS_2005>
145.606009950261

> <r_i_LJ-14_Energy-OPLS_2005>
313.103145821815

> <r_i_El-14_Energy-OPLS_2005>
-228.96511920346

> <r_i_Van_der_Waals_Energy-OPLS_2005>
-490.077541929929

> <r_i_Electrostatic_Energy-OPLS_2005>
-5520.15888375263

> <r_i_Dihedral_Energy-OPLS_2005>
81.0149538346663

> <r_i_target_temperature>
298

> <s_user_Residue_ID>
_:1

$$$$
