@<TRIPOS>MOLECULE
:2r9w_ligand
45   48    1
SMALL
USER_CHARGES


@<TRIPOS>ATOM
      1 CD2        22.9090    9.3210   15.6750 C.ar      1 LIG         0.0000 
      2 CAN        22.4060    9.2820   16.9720 C.ar      1 LIG        -0.1150 
      3 CAH        21.3400   10.0720   17.3400 C.ar      1 LIG        -0.1150 
      4 CAG        20.7510   10.9320   16.4290 C.ar      1 LIG        -0.1150 
      5 CAL        21.2410   10.9980   15.1300 C.ar      1 LIG        -0.1150 
      6 CAX        22.3160   10.1940   14.7590 C.ar      1 LIG         0.0000 
      7 CAM        22.7950   10.2750   13.4610 C.ar      1 LIG        -0.1150 
      8 CAI        23.8630    9.4750   13.0910 C.ar      1 LIG        -0.1150 
      9 CD1        24.4450    8.6080   13.9970 C.ar      1 LIG        -0.1150 
     10 CG         23.9950    8.5220   15.3010 C.ar      1 LIG        -0.1150 
     11 CB         24.7120    7.5120   16.2130 C.3       1 LIG        -0.0050 
     12 CA         23.7960    6.2670   16.3550 C.3       1 LIG         0.0100 
     13 C          24.3490    5.1940   17.3360 C.3       1 LIG         0.4700 
     14 OXT        24.0970    5.3900   18.5510 O.3       1 LIG        -0.6830 
     15 O          24.9630    4.2210   16.8750 O.3       1 LIG        -0.6830 
     16 N          23.3960    5.7440   15.0260 N.am      1 LIG        -0.3150 
     17 CAW        22.1140    5.6400   14.6600 C.2       1 LIG         0.7455 
     18 OAD        21.1580    5.9120   15.3850 O.2       1 LIG        -0.5080 
     19 CBA        22.0290    5.1580   13.3540 C.ar      1 LIG        -0.1150 
     20 CAP        20.9590    4.8580   12.5070 C.ar      1 LIG        -0.1150 
     21 CAT        21.2080    4.3710   11.2250 C.ar      1 LIG        -0.1150 
     22 CAR        20.0820    4.0090   10.2690 C.2       1 LIG         0.7150 
     23 OAE        19.0120    3.5780   10.7470 O.co2     1 LIG        -0.8000 
     24 OAA        20.3180    4.1100    9.0460 O.co2     1 LIG        -0.8000 
     25 CAK        22.5210    4.1870   10.8070 C.ar      1 LIG        -0.1150 
     26 CAO        23.5720    4.4900   11.6530 C.ar      1 LIG        -0.1150 
     27 CAZ        23.3420    4.9770   12.9340 C.ar      1 LIG        -0.1150 
     28 CAV        24.1670    5.3610   13.9950 C.2       1 LIG         0.7455 
     29 OAC        25.4050    5.3390   13.9930 O.2       1 LIG        -0.5080 
     30 HAN        22.8403    8.6475   17.7283 H         1 LIG         0.1150 
     31 HAH        20.9643   10.0271   18.3511 H         1 LIG         0.1150 
     32 HAG        19.9176   11.5511   16.7267 H         1 LIG         0.1150 
     33 HAL        20.7840   11.6723   14.4201 H         1 LIG         0.1150 
     34 HAM        22.2901   10.9038   12.7583 H         1 LIG         0.1150 
     35 HAI        24.2251    9.4610   12.0833 H         1 LIG         0.1150 
     36 HD1        25.2748    8.0028   13.6696 H         1 LIG         0.1150 
     37 HB1        24.9132    7.9703   17.1818 H         1 LIG         0.0600 
     38 HB2        25.6863    7.2461   15.8007 H         1 LIG         0.0600 
     39 HA         22.8979    6.6307   16.8517 H         1 LIG         0.0600 
     40 HXT        25.3262    5.6422   17.5128 H         1 LIG         0.0600 
     41 HOXT       24.7382    5.9898   18.9013 H         1 LIG         0.4180 
     42 HO         25.8416    4.5037   16.6467 H         1 LIG         0.4180 
     43 HAP        19.9448    5.0073   12.8483 H         1 LIG         0.1150 
     44 HAK        22.7343    3.8129    9.8163 H         1 LIG         0.1150 
     45 HAO        24.5842    4.3852   11.3142 H         1 LIG         0.1150 
@<TRIPOS>BOND
     1    1    2 ar   
     2    1    6 ar   
     3    1   10 ar   
     4    2    3 ar   
     5    2   30 1    
     6    3    4 ar   
     7    3   31 1    
     8    4    5 ar   
     9    4   32 1    
    10    5    6 ar   
    11    5   33 1    
    12    6    7 ar   
    13    7    8 ar   
    14    7   34 1    
    15    8    9 ar   
    16    8   35 1    
    17    9   10 ar   
    18    9   36 1    
    19   10   11 1    
    20   11   12 1    
    21   11   37 1    
    22   11   38 1    
    23   12   13 1    
    24   12   16 1    
    25   12   39 1    
    26   13   14 1    
    27   13   15 1    
    28   13   40 1    
    29   14   41 1    
    30   15   42 1    
    31   16   17 am   BACKBONE|DICT|INTERRES
    32   16   28 am   BACKBONE|DICT|INTERRES
    33   17   18 2    
    34   17   19 1    
    35   19   20 ar   
    36   19   27 ar   
    37   20   21 ar   
    38   20   43 1    
    39   21   22 1    
    40   21   25 ar   
    41   22   23 2    
    42   22   24 1    
    43   25   26 ar   
    44   25   44 1    
    45   26   27 ar   
    46   26   45 1    
    47   27   28 1    
    48   28   29 2    
@<TRIPOS>SUBSTRUCTURE
     1 LIG         1 GROUP             0       ****    0 ROOT    
