@<TRIPOS>MOLECULE
:4twp_ligand
46   49    1
SMALL
USER_CHARGES


@<TRIPOS>ATOM
      1 O81        62.0220   19.2470   46.7580 O.2       1 LIG        -0.5000 
      2 C80        62.4410   19.2240   47.8990 C.2       1 LIG         0.6150 
      3 N82        62.4980   20.4290   48.6620 N.am      1 LIG        -0.5000 
      4 C88        62.0520   21.6740   48.0700 C.3       1 LIG         0.0200 
      5 C23        62.9000   17.9420   48.5020 C.ar      1 LIG        -0.1150 
      6 C22        64.1850   17.8490   49.0220 C.ar      1 LIG        -0.1150 
      7 C21        64.6240   16.6610   49.5860 C.ar      1 LIG        -0.1150 
      8 C20        63.7750   15.5550   49.6320 C.ar      1 LIG        -0.1150 
      9 C18        62.0460   16.8310   48.5450 C.ar      1 LIG         0.1525 
     10 C19        62.4850   15.6480   49.1080 C.ar      1 LIG        -0.1150 
     11 S24        60.3880   16.9320   47.8840 S.3       1 LIG        -0.3050 
     12 C07        59.3910   15.7140   48.7410 C.ar      1 LIG         0.1525 
     13 C08        59.3110   15.7500   50.1410 C.ar      1 LIG        -0.1150 
     14 C09        58.5370   14.7940   50.8280 C.ar      1 LIG        -0.1150 
     15 C12        58.7100   14.7330   48.0280 C.ar      1 LIG        -0.1150 
     16 C11        57.9160   13.7580   48.7300 C.ar      1 LIG         0.2996 
     17 N15        57.1460   12.6910   48.2980 N.2       1 LIG        -0.5310 
     18 N14        56.5920   12.0680   49.3930 N.pl3     1 LIG        -0.1490 
     19 C13        56.9880   12.7120   50.5070 C.ar      1 LIG         0.1710 
     20 C10        57.8360   13.7940   50.1000 C.ar      1 LIG        -0.1316 
     21 C16        56.6090   12.3550   51.9180 C.2       1 LIG        -0.1150 
     22 C17        57.3130   12.8630   52.9770 C.2       1 LIG        -0.1150 
     23 C02        57.0670   12.3110   54.3540 C.ar      1 LIG         0.4850 
     24 N03        57.6910   12.8560   55.4080 N.ar      1 LIG        -0.6780 
     25 C04        57.5010   12.3940   56.6560 C.ar      1 LIG         0.4730 
     26 C05        56.6410   11.3290   56.8630 C.ar      1 LIG        -0.4470 
     27 C06        55.9830   10.7480   55.7900 C.ar      1 LIG         0.2270 
     28 C01        56.1980   11.2450   54.5130 C.ar      1 LIG        -0.4470 
     29 HN82       62.8246   20.4259   49.6186 H         1 LIG         0.3000 
     30 H881       62.1352   22.4713   48.8082 H         1 LIG         0.0600 
     31 H882       62.6766   21.9561   47.2241 H         1 LIG         0.0600 
     32 H883       61.0040   21.6064   47.7886 H         1 LIG         0.0600 
     33 H22        64.8165   18.7239   49.0759 H         1 LIG         0.1150 
     34 H21        65.4550   16.6860   50.2386 H         1 LIG         0.1150 
     35 H20        64.0859   14.6531   50.1385 H         1 LIG         0.1150 
     36 H19        61.8416   14.7856   49.1633 H         1 LIG         0.1150 
     37 H08        59.8210   16.5264   50.6914 H         1 LIG         0.1150 
     38 H09        58.4610   14.9945   51.8756 H         1 LIG         0.1150 
     39 H12        58.7721   14.6995   46.9503 H         1 LIG         0.1150 
     40 HN14       55.8175   11.4355   49.3009 H         1 LIG         0.3410 
     41 H16        55.7872   11.6675   51.9928 H         1 LIG         0.1150 
     42 H17        58.1414   13.5263   52.9521 H         1 LIG         0.1150 
     43 H04        58.0320   12.8749   57.4643 H         1 LIG         0.0120 
     44 H05        56.4809   10.9516   57.8621 H         1 LIG         0.1550 
     45 H06        55.3019    9.9282   55.9538 H         1 LIG         0.0650 
     46 H01        55.6696   10.7457   53.7209 H         1 LIG         0.1550 
@<TRIPOS>BOND
     1    1    2 2    
     2    2    3 am   BACKBONE|DICT|INTERRES
     3    2    5 1    
     4    3    4 1    
     5    3   29 1    
     6    4   30 1    
     7    4   31 1    
     8    4   32 1    
     9    5    6 ar   
    10    5    9 ar   
    11    6    7 ar   
    12    6   33 1    
    13    7    8 ar   
    14    7   34 1    
    15    8   10 ar   
    16    8   35 1    
    17    9   10 ar   
    18    9   11 1    
    19   10   36 1    
    20   11   12 1    
    21   12   13 ar   
    22   12   15 ar   
    23   13   14 ar   
    24   13   37 1    
    25   14   20 ar   
    26   14   38 1    
    27   15   16 ar   
    28   15   39 1    
    29   16   17 ar   
    30   16   20 ar   
    31   17   18 ar   
    32   18   19 ar   
    33   18   40 1    
    34   19   20 ar   
    35   19   21 1    
    36   21   22 2    
    37   21   41 1    
    38   22   23 1    
    39   22   42 1    
    40   23   24 ar   
    41   23   28 ar   
    42   24   25 ar   
    43   25   26 ar   
    44   25   43 1    
    45   26   27 ar   
    46   26   44 1    
    47   27   28 ar   
    48   27   45 1    
    49   28   46 1    
@<TRIPOS>SUBSTRUCTURE
     1 LIG         1 GROUP             0       ****    0 ROOT    
