@<TRIPOS>MOLECULE
:4wiv_ligand
52   55    1
SMALL
USER_CHARGES


@<TRIPOS>ATOM
      1 O1         12.6810   -9.4940  -11.1000 O.3       1 LIG        -0.1220 
      2 C2         13.5650   -8.6740  -10.4850 C.2       1 LIG         0.2330 
      3 C3         13.0580   -7.3150  -10.6600 C.2       1 LIG        -0.2710 
      4 C4         11.7900   -7.4880  -11.4130 C.2       1 LIG         0.3430 
      5 C5         10.8680   -6.3820  -11.8380 C.3       1 LIG        -0.0650 
      6 C6         14.7930   -9.2550   -9.8500 C.3       1 LIG        -0.0650 
      7 C8         13.6880   -6.0850  -10.1280 C.ar      1 LIG         0.0000 
      8 C13        13.8590   -4.9750  -10.9380 C.ar      1 LIG        -0.1150 
      9 C14        15.5270   -2.6110   -8.5600 C.2       1 LIG         0.0180 
     10 C16        16.7990   -0.8060   -8.5330 C.2       1 LIG         0.0360 
     11 C18        15.8380   -2.1850   -7.1830 C.2       1 LIG         0.0360 
     12 N1         11.6400   -8.8270  -11.6530 N.2       1 LIG        -0.4130 
     13 C9         14.1150   -6.0750   -8.8020 C.ar      1 LIG        -0.1150 
     14 C10        14.7080   -4.9350   -8.2870 C.ar      1 LIG        -0.1150 
     15 C11        14.8270   -3.8010   -9.0860 C.ar      1 LIG         0.0000 
     16 C12        14.4470   -3.8250  -10.4190 C.ar      1 LIG        -0.1150 
     17 N2         16.1800   -1.7200   -9.3260 N.pl3     1 LIG        -0.3897 
     18 N3         16.5890   -1.0860   -7.2240 N.pl3     1 LIG        -0.0540 
     19 C25        17.5730    0.2910   -8.9010 C.2       1 LIG        -0.0970 
     20 N26        18.0950    1.0790   -7.9550 N.pl3     1 LIG        -0.3897 
     21 C27        17.8810    0.7950   -6.6630 C.2       1 LIG        -0.0970 
     22 C28        17.1190   -0.2970   -6.2810 C.2       1 LIG        -0.0970 
     23 N29        15.3760   -2.7750   -6.0420 N.pl3     1 LIG        -0.6070 
     24 C30        14.1060   -2.4050   -5.4180 C.3       1 LIG         0.2353 
     25 C31        13.7780   -3.3970   -4.3020 C.3       1 LIG        -0.1800 
     26 C32        14.1610   -1.0010   -4.8240 C.3       1 LIG        -0.1800 
     27 C33        12.9730   -2.4200   -6.4390 C.3       1 LIG        -0.1800 
     28 H51        10.4089   -6.6027  -12.8015 H         1 LIG         0.0600 
     29 H52        10.0704   -6.2635  -11.1095 H         1 LIG         0.0600 
     30 H53        11.3713   -5.4227  -11.9281 H         1 LIG         0.0600 
     31 H61        15.6598   -8.6337  -10.0717 H         1 LIG         0.0600 
     32 H62        14.6872   -9.3078   -8.7680 H         1 LIG         0.0600 
     33 H63        14.9928  -10.2563  -10.2296 H         1 LIG         0.0600 
     34 H13        13.5604   -4.9956  -11.9757 H         1 LIG         0.1150 
     35 H9         13.9942   -6.9461   -8.1744 H         1 LIG         0.1150 
     36 H10        15.0611   -4.9510   -7.2684 H         1 LIG         0.1150 
     37 H12        14.5838   -2.9652  -11.0585 H         1 LIG         0.1150 
     38 HN2        16.2347   -1.7490  -10.3336 H         1 LIG         0.3537 
     39 H25        17.7868    0.5790   -9.9194 H         1 LIG         0.1150 
     40 HN26       18.6595    1.8761   -8.2126 H         1 LIG         0.3537 
     41 H27        18.3482    1.4723   -5.9635 H         1 LIG         0.1150 
     42 H28        16.9281   -0.5792   -5.2572 H         1 LIG         0.1150 
     43 HN29       16.0939   -2.8637   -5.3374 H         1 LIG         0.3537 
     44 H311       12.8307   -3.1578   -3.8165 H         1 LIG         0.0600 
     45 H312       13.6971   -4.4141   -4.6881 H         1 LIG         0.0600 
     46 H313       14.5492   -3.3996   -3.5309 H         1 LIG         0.0600 
     47 H321       13.2169   -0.7352   -4.3467 H         1 LIG         0.0600 
     48 H322       14.9368   -0.9240   -4.0619 H         1 LIG         0.0600 
     49 H323       14.3604   -0.2419   -5.5765 H         1 LIG         0.0600 
     50 H331       12.0168   -2.1669   -5.9801 H         1 LIG         0.0600 
     51 H332       13.1321   -1.7121   -7.2525 H         1 LIG         0.0600 
     52 H333       12.8680   -3.4096   -6.8740 H         1 LIG         0.0600 
@<TRIPOS>BOND
     1    1    2 1    
     2    1   12 1    
     3    2    3 2    
     4    2    6 1    
     5    3    4 1    
     6    3    7 1    
     7    4    5 1    
     8    4   12 2    
     9    5   28 1    
    10    5   29 1    
    11    5   30 1    
    12    6   31 1    
    13    6   32 1    
    14    6   33 1    
    15    7    8 ar   
    16    7   13 ar   
    17    8   16 ar   
    18    8   34 1    
    19    9   11 2    
    20    9   15 1    
    21    9   17 1    
    22   10   17 1    
    23   10   18 1    
    24   10   19 2    
    25   11   18 1    
    26   11   23 1    
    27   13   14 ar   
    28   13   35 1    
    29   14   15 ar   
    30   14   36 1    
    31   15   16 ar   
    32   16   37 1    
    33   17   38 1    
    34   18   22 1    
    35   19   20 1    
    36   19   39 1    
    37   20   21 1    
    38   20   40 1    
    39   21   22 2    
    40   21   41 1    
    41   22   42 1    
    42   23   24 1    
    43   23   43 1    
    44   24   25 1    
    45   24   26 1    
    46   24   27 1    
    47   25   44 1    
    48   25   45 1    
    49   25   46 1    
    50   26   47 1    
    51   26   48 1    
    52   26   49 1    
    53   27   50 1    
    54   27   51 1    
    55   27   52 1    
@<TRIPOS>SUBSTRUCTURE
     1 LIG         1 GROUP             0       ****    0 ROOT    
