@<TRIPOS>MOLECULE
:2yki_ligand
52   58    1
SMALL
USER_CHARGES


@<TRIPOS>ATOM
      1 C1         13.3100   14.4050   26.4850 C.ar      1 LIG         0.4730 
      2 N1         13.0260   14.6140   27.8340 N.ar      1 LIG        -0.6780 
      3 C2         11.7160   14.6960   28.2950 C.ar      1 LIG         0.4730 
      4 N2          9.2910   14.5930   27.4880 N.2       1 LIG        -0.5630 
      5 C3         12.2830   14.2610   25.5220 C.ar      1 LIG        -0.4470 
      6 N3          9.7400   14.2580   25.3430 N.pl3     1 LIG        -0.2570 
      7 C4          8.7580   14.4110   26.2680 C.ar      1 LIG         0.3530 
      8 N4          3.5690   11.9560   24.6550 N.am      1 LIG        -0.5000 
      9 C5         10.9530   14.3440   25.9690 C.ar      1 LIG         0.1306 
     10 N5         -1.1620   10.2670   26.1340 N.ar      1 LIG        -0.7065 
     11 C6         10.6580   14.5590   27.3740 C.ar      1 LIG         0.0304 
     12 N6         -2.3590   11.5620   24.3860 N.pl3     1 LIG        -0.5442 
     13 C7          7.3310   14.4050   26.0300 C.ar      1 LIG         0.0000 
     14 C8          4.4750   14.5760   25.6390 C.ar      1 LIG        -0.1150 
     15 C9          5.1590   15.5770   26.3920 C.ar      1 LIG        -0.1150 
     16 C10         6.5780   15.4750   26.5770 C.ar      1 LIG        -0.1150 
     17 C11         2.4440   11.4850   24.0790 C.2       1 LIG         0.6150 
     18 C12         1.2430   11.0110   24.8590 C.ar      1 LIG         0.0323 
     19 O13         2.4240   11.4800   22.8390 O.2       1 LIG        -0.5000 
     20 C14         1.2920   10.1820   26.0380 C.ar      1 LIG        -0.5355 
     21 C15         0.0470    9.8260   26.6640 C.ar      1 LIG         0.3847 
     22 C16         4.5710   12.3870   24.2720 C.3       1 LIG         0.3700 
     23 C17         5.1960   13.4650   25.0650 C.ar      1 LIG        -0.1150 
     24 C18         6.5850   13.3350   25.2300 C.ar      1 LIG         0.0000 
     25 C19         5.8240   11.5170   23.9560 C.ar      1 LIG        -0.1150 
     26 C20         7.0090   12.1050   24.5250 C.ar      1 LIG         0.0000 
     27 C21         8.2930   11.4330   24.3260 C.ar      1 LIG        -0.1150 
     28 C22         8.3700   10.2140   23.5750 C.ar      1 LIG        -0.1150 
     29 C23         7.1600    9.6370   23.0090 C.ar      1 LIG        -0.1150 
     30 C24         5.8960   10.2880   23.1980 C.ar      1 LIG        -0.1150 
     31 C25        -0.0800   11.4560   24.3250 C.ar      1 LIG         0.0033 
     32 C26        -1.2240   11.0730   24.9920 C.ar      1 LIG         0.6662 
     33 C27        -1.9350   12.2990   23.2940 C.ar      1 LIG        -0.0205 
     34 C28        -0.5270   12.2640   23.2210 C.ar      1 LIG        -0.4676 
     35 H1         14.3512   14.3527   26.2029 H         1 LIG         0.0120 
     36 H2         11.5509   14.8729   29.3453 H         1 LIG         0.0120 
     37 H3         12.5137   14.0960   24.4801 H         1 LIG         0.1550 
     38 HN3         9.5740   14.1566   24.3502 H         1 LIG         0.3060 
     39 HN4         3.5221   11.9470   25.6640 H         1 LIG         0.3000 
     40 HN6        -3.3344   11.4671   24.6537 H         1 LIG         0.3906 
     41 H8          3.4070   14.6538   25.4986 H         1 LIG         0.1150 
     42 H9          4.6104   16.3961   26.8333 H         1 LIG         0.1150 
     43 H10         7.0663   16.1828   27.2101 H         1 LIG         0.1150 
     44 H14         2.2330    9.8433   26.4463 H         1 LIG         0.2045 
     45 H15         0.0110    9.2134   27.5530 H         1 LIG         0.0641 
     46 H16         4.3634   12.9001   23.3389 H         1 LIG         0.0600 
     47 H21         9.1945   11.8355   24.7566 H         1 LIG         0.1150 
     48 H22         9.3177    9.7098   23.4549 H         1 LIG         0.1150 
     49 H23         7.1956    8.6932   22.5269 H         1 LIG         0.1150 
     50 H24         4.9957    9.8512   22.7913 H         1 LIG         0.1150 
     51 H27        -2.6499   12.7964   22.6543 H         1 LIG         0.1859 
     52 H28         0.0964   12.7464   22.4826 H         1 LIG         0.2277 
@<TRIPOS>BOND
     1    1    2 ar   
     2    1    5 ar   
     3    1   35 1    
     4    2    3 ar   
     5    3   11 ar   
     6    3   36 1    
     7    4    7 ar   
     8    4   11 ar   
     9    5    9 ar   
    10    5   37 1    
    11    6    7 ar   
    12    6    9 ar   
    13    6   38 1    
    14    7   13 1    
    15    8   17 am   BACKBONE|DICT|INTERRES
    16    8   22 1    
    17    8   39 1    
    18    9   11 ar   
    19   10   21 ar   
    20   10   32 ar   
    21   12   32 ar   
    22   12   33 ar   
    23   12   40 1    
    24   13   16 ar   
    25   13   24 ar   
    26   14   15 ar   
    27   14   23 ar   
    28   14   41 1    
    29   15   16 ar   
    30   15   42 1    
    31   16   43 1    
    32   17   18 1    
    33   17   19 2    
    34   18   20 ar   
    35   18   31 ar   
    36   20   21 ar   
    37   20   44 1    
    38   21   45 1    
    39   22   23 1    
    40   22   25 1    
    41   22   46 1    
    42   23   24 ar   
    43   24   26 1    
    44   25   26 ar   
    45   25   30 ar   
    46   26   27 ar   
    47   27   28 ar   
    48   27   47 1    
    49   28   29 ar   
    50   28   48 1    
    51   29   30 ar   
    52   29   49 1    
    53   30   50 1    
    54   31   32 ar   
    55   31   34 ar   
    56   33   34 ar   
    57   33   51 1    
    58   34   52 1    
@<TRIPOS>SUBSTRUCTURE
     1 LIG         1 GROUP             0       ****    0 ROOT    
