:2wer_ligand
                    3D
 Schrodinger Suite 2020-1.
 41 43  0  0  1  0            999 V2000
    2.4670   55.6290   -5.8180 C   0  0  0  0  0  0
    3.3400   55.7540   -4.6350 C   0  0  0  0  0  0
    4.4930   56.7030   -4.7240 C   0  0  0  0  0  0
    5.3540   56.7790   -3.6090 C   0  0  0  0  0  0
    5.2010   55.9860   -2.4510 C   0  0  0  0  0  0
    4.0870   55.0300   -2.3550 C   0  0  0  0  0  0
    3.1550   54.8830   -3.4730 C   0  0  0  0  0  0
    1.9820   53.9180   -3.3330 C   0  0  0  0  0  0
    2.2760   52.5170   -2.8750 C   0  0  0  0  0  0
    3.3010   51.6600   -3.5130 C   0  0  0  0  0  0
    3.7450   51.9540   -4.7360 C   0  0  0  0  0  0
    4.7190   51.0940   -5.4250 C   0  0  0  0  0  0
    5.0800   51.3330   -6.6980 C   0  0  0  0  0  0
    4.6000   52.5250   -7.4910 C   0  0  2  0  0  0
    3.2050   52.3500   -8.1070 C   0  0  1  0  0  0
    2.4720   53.6300   -8.5250 C   0  0  0  0  0  0
    1.5290   54.1460   -7.4170 C   0  0  1  0  0  0
    0.4480   53.1520   -7.0600 C   0  0  0  0  0  0
    2.3150   54.2610   -6.2360 O   0  0  0  0  0  0
    2.0100   56.5370   -6.4310 O   0  0  0  0  0  0
    4.5850   57.4710   -5.8400 O   0  0  0  0  0  0
    6.0380   56.0470   -1.3980 O   0  5  0  0  0  0
    3.8020   54.1210   -0.9030 Cl  0  0  0  0  0  0
    1.5720   52.0720   -1.9900 O   0  0  0  0  0  0
    4.4290   52.2310   -8.8790 O   0  0  0  0  0  0
    6.1816   57.4723   -3.6432 H   0  0  0  0  0  0
    1.3511   53.8575   -4.2130 H   0  0  0  0  0  0
    1.3329   54.3624   -2.5778 H   0  0  0  0  0  0
    3.5884   50.7453   -3.0148 H   0  0  0  0  0  0
    3.5148   52.8727   -5.1779 H   0  0  0  0  0  0
    5.1317   50.2354   -4.9146 H   0  0  0  0  0  0
    5.7835   50.6688   -7.1763 H   0  0  0  0  0  0
    5.0216   53.4964   -7.2565 H   0  0  0  0  0  0
    2.6486   51.4221   -7.9911 H   0  0  0  0  0  0
    1.9150   53.4329   -9.4403 H   0  0  0  0  0  0
    3.1860   54.4127   -8.7526 H   0  0  0  0  0  0
    1.0323   55.0495   -7.7705 H   0  0  0  0  0  0
   -0.1939   53.5772   -6.2921 H   0  0  0  0  0  0
   -0.1764   52.9208   -7.9231 H   0  0  0  0  0  0
    0.8484   52.2167   -6.6683 H   0  0  0  0  0  0
    5.2761   58.1289   -5.7657 H   0  0  0  0  0  0
  1  2  1  0  0  0
  1 19  1  0  0  0
  1 20  2  0  0  0
  2  3  2  0  0  0
  2  7  1  0  0  0
  3  4  1  0  0  0
  3 21  1  0  0  0
  4  5  2  0  0  0
  4 26  1  0  0  0
  5  6  1  0  0  0
  5 22  1  0  0  0
  6  7  2  0  0  0
  6 23  1  0  0  0
  7  8  1  0  0  0
  8  9  1  0  0  0
  8 27  1  0  0  0
  8 28  1  0  0  0
  9 10  1  0  0  0
  9 24  2  0  0  0
 10 11  2  0  0  0
 10 29  1  0  0  0
 11 12  1  0  0  0
 11 30  1  0  0  0
 12 13  2  0  0  0
 12 31  1  0  0  0
 13 14  1  0  0  0
 13 32  1  0  0  0
 14 15  1  0  0  0
 14 25  1  0  0  0
 14 33  1  0  0  0
 15 16  1  0  0  0
 15 25  1  0  0  0
 15 34  1  0  0  0
 16 17  1  0  0  0
 16 35  1  0  0  0
 16 36  1  0  0  0
 17 18  1  0  0  0
 17 19  1  0  0  0
 17 37  1  0  0  0
 18 38  1  0  0  0
 18 39  1  0  0  0
 18 40  1  0  0  0
 21 41  1  0  0  0
M  CHG  1  22  -1
M  END
> <s_pdb_PDB_ID>


> <s_pdb_PDB_CLASSIFICATION>
2WER_PROTEIN

> <s_pdb_PDB_format_version>
3.0

> <b_ppw_prepared>
1

> <s_ppw_prepared_with_version>
2020-1

> <b_ppw_created_disulfur>
1

> <s_ppw_het_states>
eJxdkUsOgkAQRK9CWKOhexp/VzHcgLhzRbi7NEV8DC5IpcC8mXpza+2rea+/cvN71/Rj12R8EJ//WHqiEZ1YiEEciDcitAKtQAtoAS2gBbSAFtACWkCLlXaxPYMbwA0bLvO+igbZ/6MiMXWxwpz1NFxV5DrGqNqzKvKUxtaa2VlcY9uxCA6W70TxY5F3NPxIjWFJggxX0lQVOY6jUPYckXJo6JRJR6p8GmpltSqGQ6HL+ak4fqHLsWlsl4s4F9vl1qa/WuTh56VrPt9p0nMclx/E1qHm

> <r_ff_Potential_Energy-OPLS3e>
-124102.137658663

> <r_ff_RMS_Derivative-OPLS3e>
0.0443848988714572

> <b_ff_Minimization_Converged-OPLS3e>
1

> <r_i_Potential_Energy-OPLS_2005>
-13086.9173030701

> <r_i_RMS_Derivative-OPLS_2005>
0.043544185494989

> <r_i_Max_Derivative-OPLS_2005>
1.71634984721781

> <r_i_Stretch_Energy-OPLS_2005>
19.2847027351488

> <r_i_Bend_Energy-OPLS_2005>
538.104216640078

> <r_i_LJ-14_Energy-OPLS_2005>
666.652586339493

> <r_i_El-14_Energy-OPLS_2005>
-452.957383113796

> <r_i_Van_der_Waals_Energy-OPLS_2005>
-681.529799016106

> <r_i_Electrostatic_Energy-OPLS_2005>
-13374.9483899549

> <r_i_Dihedral_Energy-OPLS_2005>
198.476763299982

> <r_i_target_temperature>
298

> <s_user_Residue_ID>
_:1

$$$$
