@<TRIPOS>MOLECULE
:2wer_ligand
41   43    1
SMALL
USER_CHARGES


@<TRIPOS>ATOM
      1 C1          2.4670   55.6290   -5.8180 C.2       1 LIG         0.6250 
      2 C2          3.3400   55.7540   -4.6350 C.ar      1 LIG        -0.1150 
      3 C3          4.4930   56.7030   -4.7240 C.ar      1 LIG         0.1500 
      4 C4          5.3540   56.7790   -3.6090 C.ar      1 LIG        -0.1150 
      5 C5          5.2010   55.9860   -2.4510 C.ar      1 LIG        -0.1700 
      6 C6          4.0870   55.0300   -2.3550 C.ar      1 LIG         0.1800 
      7 C7          3.1550   54.8830   -3.4730 C.ar      1 LIG        -0.1150 
      8 C8          1.9820   53.9180   -3.3330 C.3       1 LIG        -0.0050 
      9 C9          2.2760   52.5170   -2.8750 C.2       1 LIG         0.4700 
     10 C10         3.3010   51.6600   -3.5130 C.2       1 LIG        -0.1150 
     11 C11         3.7450   51.9540   -4.7360 C.2       1 LIG        -0.1150 
     12 C12         4.7190   51.0940   -5.4250 C.2       1 LIG        -0.1150 
     13 C13         5.0800   51.3330   -6.6980 C.2       1 LIG        -0.1150 
     14 C14         4.6000   52.5250   -7.4910 C.3       1 LIG         0.1162 
     15 C15         3.2050   52.3500   -8.1070 C.3       1 LIG         0.1162 
     16 C16         2.4720   53.6300   -8.5250 C.3       1 LIG        -0.1200 
     17 C17         1.5290   54.1460   -7.4170 C.3       1 LIG         0.2200 
     18 C18         0.4480   53.1520   -7.0600 C.3       1 LIG        -0.1800 
     19 O1          2.3150   54.2610   -6.2360 O.3       1 LIG        -0.3300 
     20 O2          2.0100   56.5370   -6.4310 O.2       1 LIG        -0.4300 
     21 O3          4.5850   57.4710   -5.8400 O.3       1 LIG        -0.5850 
     22 O4          6.0380   56.0470   -1.3980 O.co2     1 LIG        -0.8300 
     23 CL1         3.8020   54.1210   -0.9030 Cl        1 LIG        -0.1800 
     24 O5          1.5720   52.0720   -1.9900 O.2       1 LIG        -0.4700 
     25 O6          4.4290   52.2310   -8.8790 O.3       1 LIG        -0.3524 
     26 H4          6.1816   57.4723   -3.6432 H         1 LIG         0.1150 
     27 H81         1.3511   53.8575   -4.2130 H         1 LIG         0.0600 
     28 H82         1.3329   54.3624   -2.5778 H         1 LIG         0.0600 
     29 H10         3.5884   50.7453   -3.0148 H         1 LIG         0.1150 
     30 H11         3.5148   52.8727   -5.1779 H         1 LIG         0.1150 
     31 H12         5.1317   50.2354   -4.9146 H         1 LIG         0.1150 
     32 H13         5.7835   50.6688   -7.1763 H         1 LIG         0.1150 
     33 H14         5.0216   53.4964   -7.2565 H         1 LIG         0.0600 
     34 H15         2.6486   51.4221   -7.9911 H         1 LIG         0.0600 
     35 H161        1.9150   53.4329   -9.4403 H         1 LIG         0.0600 
     36 H162        3.1860   54.4127   -8.7526 H         1 LIG         0.0600 
     37 H17         1.0323   55.0495   -7.7705 H         1 LIG         0.0300 
     38 H181       -0.1939   53.5772   -6.2921 H         1 LIG         0.0600 
     39 H182       -0.1764   52.9208   -7.9231 H         1 LIG         0.0600 
     40 H183        0.8484   52.2167   -6.6683 H         1 LIG         0.0600 
     41 HO3         5.2761   58.1289   -5.7657 H         1 LIG         0.4350 
@<TRIPOS>BOND
     1    1    2 1    
     2    1   19 1    
     3    1   20 2    
     4    2    3 ar   
     5    2    7 ar   
     6    3    4 ar   
     7    3   21 1    
     8    4    5 ar   
     9    4   26 1    
    10    5    6 ar   
    11    5   22 1    
    12    6    7 ar   
    13    6   23 1    
    14    7    8 1    
    15    8    9 1    
    16    8   27 1    
    17    8   28 1    
    18    9   10 1    
    19    9   24 2    
    20   10   11 2    
    21   10   29 1    
    22   11   12 1    
    23   11   30 1    
    24   12   13 2    
    25   12   31 1    
    26   13   14 1    
    27   13   32 1    
    28   14   15 1    
    29   14   25 1    
    30   14   33 1    
    31   15   16 1    
    32   15   25 1    
    33   15   34 1    
    34   16   17 1    
    35   16   35 1    
    36   16   36 1    
    37   17   18 1    
    38   17   19 1    
    39   17   37 1    
    40   18   38 1    
    41   18   39 1    
    42   18   40 1    
    43   21   41 1    
@<TRIPOS>SUBSTRUCTURE
     1 LIG         1 GROUP             0       ****    0 ROOT    
