@<TRIPOS>MOLECULE
:3up2_ligand
40   42    1
SMALL
USER_CHARGES


@<TRIPOS>ATOM
      1 N01         3.8470   31.8080    9.1560 N.ar      1 LIG        -0.8390 
      2 N02         4.5020   30.9520    7.0580 N.ar      1 LIG        -0.8390 
      3 N03         5.7040   28.8430    6.8710 N.pl3     1 LIG        -0.7800 
      4 N04         3.3000   33.0480    7.2230 N.pl3     1 LIG        -0.7043 
      5 C05         4.4050   30.7600    9.8000 C.ar      1 LIG         0.6530 
      6 C06         3.8970   31.8900    7.8130 C.ar      1 LIG         0.9663 
      7 C07         5.0730   29.8730    7.6580 C.ar      1 LIG         0.8640 
      8 C08         5.0290   29.7550    9.0540 C.ar      1 LIG        -0.6890 
      9 C09         5.9350   29.0050    5.4600 C.ar      1 LIG         0.2000 
     10 C10         4.8940   29.3620    4.6080 C.ar      1 LIG        -0.1150 
     11 C11         5.1180   29.5190    3.2460 C.ar      1 LIG        -0.1150 
     12 C12         6.3870   29.3060    2.7280 C.ar      1 LIG        -0.1150 
     13 C13         7.4250   28.9340    3.5740 C.ar      1 LIG        -0.1150 
     14 C14         7.2090   28.7920    4.9450 C.ar      1 LIG         0.1000 
     15 C15         9.3310   29.1990    6.0800 C.3       1 LIG         0.6000 
     16 C16         2.9390   33.2330    5.8440 C.ar      1 LIG         0.2000 
     17 C17         1.8600   34.0660    5.5690 C.ar      1 LIG        -0.1150 
     18 C18         1.4770   34.3250    4.2630 C.ar      1 LIG        -0.1150 
     19 C19         2.1840   33.7280    3.2170 C.ar      1 LIG        -0.1150 
     20 C20         3.2620   32.8820    3.4680 C.ar      1 LIG        -0.1150 
     21 C21         3.6470   32.6570    4.7940 C.ar      1 LIG        -0.1150 
     22 C22         1.7230   34.0080    1.8330 C.2       1 LIG         0.7150 
     23 O23         2.5500   34.0330    0.8680 O.co2     1 LIG        -0.8000 
     24 O24         0.4820   34.2340    1.6720 O.co2     1 LIG        -0.8000 
     25 O25         8.2480   28.3950    5.7790 O.3       1 LIG        -0.2500 
     26 F26         8.9500   30.4610    6.3330 F         1 LIG        -0.1500 
     27 F27        10.1490   29.1930    5.0330 F         1 LIG        -0.1500 
     28 F28         9.9790   28.6740    7.1290 F         1 LIG        -0.1500 
     29 HN03        6.3432   28.2398    7.3670 H         1 LIG         0.3800 
     30 HN04        2.8892   33.7062    7.8734 H         1 LIG         0.3800 
     31 H05         4.3518   30.6870   10.8481 H         1 LIG         0.0110 
     32 H08         5.4683   28.9046    9.5537 H         1 LIG         0.1970 
     33 H10         3.8986   29.5122    4.9950 H         1 LIG         0.1150 
     34 H11         4.3125   29.8201    2.5967 H         1 LIG         0.1150 
     35 H12         6.5664   29.4259    1.6697 H         1 LIG         0.1150 
     36 H13         8.4077   28.7586    3.1615 H         1 LIG         0.1150 
     37 H17         1.3120   34.5345    6.3707 H         1 LIG         0.1150 
     38 H18         0.6395   34.9819    4.0761 H         1 LIG         0.1150 
     39 H20         3.8118   32.4275    2.6563 H         1 LIG         0.1150 
     40 H21         4.5302   32.0633    4.9484 H         1 LIG         0.1150 
@<TRIPOS>BOND
     1    1    5 ar   
     2    1    6 ar   
     3    2    6 ar   
     4    2    7 ar   
     5    3    7 1    
     6    3    9 1    
     7    3   29 1    
     8    4    6 1    
     9    4   16 1    
    10    4   30 1    
    11    5    8 ar   
    12    5   31 1    
    13    7    8 ar   
    14    8   32 1    
    15    9   10 ar   
    16    9   14 ar   
    17   10   11 ar   
    18   10   33 1    
    19   11   12 ar   
    20   11   34 1    
    21   12   13 ar   
    22   12   35 1    
    23   13   14 ar   
    24   13   36 1    
    25   14   25 1    
    26   15   25 1    
    27   15   26 1    
    28   15   27 1    
    29   15   28 1    
    30   16   17 ar   
    31   16   21 ar   
    32   17   18 ar   
    33   17   37 1    
    34   18   19 ar   
    35   18   38 1    
    36   19   20 ar   
    37   19   22 1    
    38   20   21 ar   
    39   20   39 1    
    40   21   40 1    
    41   22   23 2    
    42   22   24 1    
@<TRIPOS>SUBSTRUCTURE
     1 LIG         1 GROUP             0       ****    0 ROOT    
