@<TRIPOS>MOLECULE
:4agn_ligand
52   53    1
SMALL
USER_CHARGES


@<TRIPOS>ATOM
      1 C01        91.4340   93.5340  -45.2570 C.ar      1 LIG         0.1164 
      2 C1         90.7660   95.8310  -44.8540 C.ar      1 LIG        -0.1150 
      3 N1         90.7020   98.2900  -44.6610 N.3       1 LIG        -0.6300 
      4 O1         90.9900   96.8240  -42.6710 O.3       1 LIG        -0.5850 
      5 C02        91.8080   93.4050  -43.9090 C.ar      1 LIG        -0.1150 
      6 C2         90.1700   97.1080  -45.3810 C.3       1 LIG         0.2050 
      7 N2         92.0850  102.4030  -44.3390 N.4       1 LIG        -0.1000 
      8 C03        89.7100   99.4240  -44.7190 C.3       1 LIG         0.0900 
      9 C3         90.9080   94.7520  -45.7280 C.ar      1 LIG        -0.1150 
     10 C4         91.6500   94.5140  -43.0550 C.ar      1 LIG         0.1000 
     11 C7         91.1290   95.7400  -43.4870 C.ar      1 LIG         0.1500 
     12 C8         90.2630  100.6250  -43.9720 C.3       1 LIG        -0.1200 
     13 C10        91.5230  101.0190  -44.7370 C.3       1 LIG         0.2100 
     14 C11        93.1810  102.4220  -43.2800 C.3       1 LIG         0.1500 
     15 C12        94.1450  103.5810  -43.4820 C.3       1 LIG        -0.1800 
     16 C13        90.9370  103.3670  -43.9740 C.3       1 LIG         0.1500 
     17 C14        90.9680  103.6760  -42.4870 C.3       1 LIG        -0.1800 
     18 C15        92.5920   99.9270  -44.5600 C.3       1 LIG        -0.1200 
     19 C16        92.0450   98.6620  -45.2120 C.3       1 LIG         0.0900 
     20 C17        91.5740   92.4640  -46.1940 C.1       1 LIG        -0.1164 
     21 C18        91.7020   91.5680  -46.9810 C.1       1 LIG         0.0000 
     22 C19        91.8600   90.4730  -47.9390 C.3       1 LIG         0.1450 
     23 O2         91.9170   90.9840  -49.2660 O.3       1 LIG        -0.6830 
     24 I2         92.1750   94.3250  -41.0000 I         1 LIG        -0.1000 
     25 HO1        90.7675   97.5880  -43.1937 H         1 LIG         0.4350 
     26 H02        92.2032   92.4776  -43.5246 H         1 LIG         0.1150 
     27 H21        89.0950   97.0369  -45.2112 H         1 LIG         0.0600 
     28 H22        90.3077   97.2063  -46.4567 H         1 LIG         0.0600 
     29 HN2        92.5183  102.7554  -45.1807 H         1 LIG         0.2900 
     30 H031       88.7762   99.1034  -44.2550 H         1 LIG         0.0600 
     31 H032       89.4822   99.6744  -45.7564 H         1 LIG         0.0600 
     32 H3         90.5995   94.8556  -46.7581 H         1 LIG         0.1150 
     33 H81        90.4886  100.3784  -42.9330 H         1 LIG         0.0600 
     34 H82        89.4400  101.3290  -43.9527 H         1 LIG         0.0600 
     35 H10        91.2771  101.1200  -45.7958 H         1 LIG         0.0600 
     36 H111       93.8701  101.6003  -43.4286 H         1 LIG         0.0600 
     37 H112       92.8878  102.2534  -42.2455 H         1 LIG         0.0600 
     38 H121       95.0028  103.4948  -42.8141 H         1 LIG         0.0600 
     39 H122       94.5228  103.6118  -44.5034 H         1 LIG         0.0600 
     40 H123       93.6802  104.5468  -43.2901 H         1 LIG         0.0600 
     41 H131       89.9573  103.1792  -44.4023 H         1 LIG         0.0600 
     42 H132       91.2093  104.3025  -44.4636 H         1 LIG         0.0600 
     43 H141       90.1180  104.3187  -42.2568 H         1 LIG         0.0600 
     44 H142       90.8241  102.7855  -41.8734 H         1 LIG         0.0600 
     45 H143       91.8323  104.2387  -42.1388 H         1 LIG         0.0600 
     46 H151       92.8010   99.7193  -43.5095 H         1 LIG         0.0600 
     47 H152       93.5232  100.1919  -45.0584 H         1 LIG         0.0600 
     48 H161       91.9510   98.8334  -46.2844 H         1 LIG         0.0600 
     49 H162       92.7370   97.8304  -45.0947 H         1 LIG         0.0600 
     50 H191       90.9977   89.8130  -47.8540 H         1 LIG         0.0600 
     51 H192       92.7611   89.9044  -47.7067 H         1 LIG         0.0600 
     52 HO2        92.7725   91.3709  -49.4060 H         1 LIG         0.4180 
@<TRIPOS>BOND
     1    1    5 ar   
     2    1    9 ar   
     3    1   20 1    
     4    2    6 1    
     5    2    9 ar   
     6    2   11 ar   
     7    3    6 1    
     8    3    8 1    
     9    3   19 1    
    10    4   11 1    
    11    4   25 1    
    12    5   10 ar   
    13    5   26 1    
    14    6   27 1    
    15    6   28 1    
    16    7   13 1    
    17    7   14 1    
    18    7   16 1    
    19    7   29 1    
    20    8   12 1    
    21    8   30 1    
    22    8   31 1    
    23    9   32 1    
    24   10   11 ar   
    25   10   24 1    
    26   12   13 1    
    27   12   33 1    
    28   12   34 1    
    29   13   18 1    
    30   13   35 1    
    31   14   15 1    
    32   14   36 1    
    33   14   37 1    
    34   15   38 1    
    35   15   39 1    
    36   15   40 1    
    37   16   17 1    
    38   16   41 1    
    39   16   42 1    
    40   17   43 1    
    41   17   44 1    
    42   17   45 1    
    43   18   19 1    
    44   18   46 1    
    45   18   47 1    
    46   19   48 1    
    47   19   49 1    
    48   20   21 3    
    49   21   22 1    
    50   22   23 1    
    51   22   50 1    
    52   22   51 1    
    53   23   52 1    
@<TRIPOS>SUBSTRUCTURE
     1 LIG         1 GROUP             0       ****    0 ROOT    
