@<TRIPOS>MOLECULE
:3mss_ligand
42   43    1
SMALL
USER_CHARGES


@<TRIPOS>ATOM
      1 N1        -11.2200   -3.2570  -32.8550 N.4       1 LIG        -0.3000 
      2 C4        -11.7960   -3.2280  -31.5030 C.3       1 LIG         0.2500 
      3 C6        -10.9210   -2.3020  -30.5940 C.3       1 LIG        -0.0050 
      4 C9         -9.4190   -2.6690  -30.6740 C.ar      1 LIG        -0.1150 
      5 C10        -8.5230   -1.8830  -31.4210 C.ar      1 LIG        -0.1150 
      6 C12        -7.1530   -2.2020  -31.5140 C.ar      1 LIG        -0.1150 
      7 C14        -6.6630   -3.3380  -30.8330 C.ar      1 LIG         0.0850 
      8 C15        -7.5440   -4.1240  -30.0780 C.ar      1 LIG        -0.1150 
      9 C17        -8.9170   -3.7940  -29.9950 C.ar      1 LIG        -0.1150 
     10 O19        -5.3060   -3.6910  -30.8590 O.3       1 LIG        -0.2850 
     11 C20        -4.7980   -4.9980  -30.5120 C.3       1 LIG         0.1818 
     12 C23        -3.2950   -4.8830  -30.5210 C.ar      1 LIG        -0.0418 
     13 C24        -2.6650   -3.6910  -30.1680 C.ar      1 LIG        -0.1150 
     14 C26        -1.2710   -3.6230  -30.1650 C.ar      1 LIG        -0.1150 
     15 C28        -0.5240   -4.7450  -30.5980 C.ar      1 LIG        -0.1150 
     16 C30        -1.1880   -5.8980  -31.0060 C.ar      1 LIG        -0.1150 
     17 C32        -2.5670   -5.9950  -30.9590 C.ar      1 LIG        -0.1150 
     18 C34       -13.2270   -2.7410  -31.5430 C.2       1 LIG         0.5000 
     19 O35       -13.3660   -1.5930  -31.9460 O.2       1 LIG        -0.5000 
     20 N36       -14.2810   -3.5390  -31.1410 N.am      1 LIG        -0.5000 
     21 C38       -15.6800   -3.0700  -31.1660 C.3       1 LIG         0.0200 
     22 H11       -11.7540   -3.8852  -33.4380 H         1 LIG         0.3300 
     23 H12       -11.2574   -2.3256  -33.2445 H         1 LIG         0.3300 
     24 H13       -10.2597   -3.5663  -32.8053 H         1 LIG         0.3300 
     25 H4        -11.7747   -4.2456  -31.1106 H         1 LIG         0.0600 
     26 H61       -11.2468   -2.3759  -29.5553 H         1 LIG         0.0600 
     27 H62       -11.0309   -1.2524  -30.8728 H         1 LIG         0.0600 
     28 H10        -8.8864   -1.0082  -31.9404 H         1 LIG         0.1150 
     29 H12        -6.4829   -1.5820  -32.0907 H         1 LIG         0.1150 
     30 H15        -7.2098   -4.9913  -29.5331 H         1 LIG         0.1150 
     31 H17        -9.5785   -4.4116  -29.4051 H         1 LIG         0.1150 
     32 H201       -5.1542   -5.7479  -31.2186 H         1 LIG         0.0300 
     33 H202       -5.1093   -5.2771  -29.5297 H         1 LIG         0.0300 
     34 H24        -3.2379   -2.8278  -29.8651 H         1 LIG         0.1150 
     35 H26        -0.7696   -2.7152  -29.8632 H         1 LIG         0.1150 
     36 H28         0.5552   -4.7000  -30.6310 H         1 LIG         0.1150 
     37 H30        -0.6414   -6.7335  -31.3802 H         1 LIG         0.1150 
     38 H32        -3.0622   -6.9042  -31.2677 H         1 LIG         0.1150 
     39 HN36      -14.1022   -4.4758  -30.8085 H         1 LIG         0.3000 
     40 H381      -16.3443   -3.8570  -30.8089 H         1 LIG         0.0600 
     41 H382      -15.8079   -2.1980  -30.5234 H         1 LIG         0.0600 
     42 H383      -15.9817   -2.8023  -32.1794 H         1 LIG         0.0600 
@<TRIPOS>BOND
     1    1    2 1    
     2    1   22 1    
     3    1   23 1    
     4    1   24 1    
     5    2    3 1    
     6    2   18 1    
     7    2   25 1    
     8    3    4 1    
     9    3   26 1    
    10    3   27 1    
    11    4    5 ar   
    12    4    9 ar   
    13    5    6 ar   
    14    5   28 1    
    15    6    7 ar   
    16    6   29 1    
    17    7    8 ar   
    18    7   10 1    
    19    8    9 ar   
    20    8   30 1    
    21    9   31 1    
    22   10   11 1    
    23   11   12 1    
    24   11   32 1    
    25   11   33 1    
    26   12   13 ar   
    27   12   17 ar   
    28   13   14 ar   
    29   13   34 1    
    30   14   15 ar   
    31   14   35 1    
    32   15   16 ar   
    33   15   36 1    
    34   16   17 ar   
    35   16   37 1    
    36   17   38 1    
    37   18   19 2    
    38   18   20 am   BACKBONE|DICT|INTERRES
    39   20   21 1    
    40   20   39 1    
    41   21   40 1    
    42   21   41 1    
    43   21   42 1    
@<TRIPOS>SUBSTRUCTURE
     1 LIG         1 GROUP             0       ****    0 ROOT    
