@<TRIPOS>MOLECULE
:4gkm_ligand
31   32    1
SMALL
USER_CHARGES


@<TRIPOS>ATOM
      1 OX1       -30.2110  -31.0620    6.7520 O.co2     1 LIG        -0.8000 
      2 CY1       -29.6880  -30.2220    7.5340 C.2       1 LIG         0.7150 
      3 OX2       -30.4070  -29.3430    8.0820 O.co2     1 LIG        -0.8000 
      4 CY2       -28.2270  -30.2750    7.8260 C.ar      1 LIG        -0.1150 
      5 CY3       -27.5150  -29.0960    8.0260 C.ar      1 LIG        -0.1150 
      6 CY4       -26.1590  -29.1460    8.3080 C.ar      1 LIG        -0.1150 
      7 C4        -25.3840  -27.8920    8.5370 C.3       1 LIG        -0.0650 
      8 CY5       -25.5070  -30.3640    8.3780 C.ar      1 LIG        -0.1150 
      9 CY6       -26.2130  -31.5340    8.1650 C.ar      1 LIG        -0.1150 
     10 CY0       -27.5740  -31.5050    7.9010 C.ar      1 LIG         0.2000 
     11 N1        -28.3360  -32.6980    7.6700 N.pl3     1 LIG        -0.7800 
     12 CX2       -28.0500  -33.9960    8.2080 C.ar      1 LIG         0.2000 
     13 CX3       -27.1910  -34.1710    9.2840 C.ar      1 LIG        -0.1150 
     14 CX4       -26.9230  -35.4310    9.7910 C.ar      1 LIG        -0.1150 
     15 CX5       -27.5450  -36.5300    9.2260 C.ar      1 LIG        -0.1150 
     16 CX6       -28.4200  -36.3710    8.1640 C.ar      1 LIG        -0.1150 
     17 CX1       -28.6800  -35.1060    7.6510 C.ar      1 LIG        -0.1150 
     18 CX0       -29.6200  -34.9730    6.4980 C.2       1 LIG         0.7150 
     19 OY1       -29.9210  -35.9930    5.8210 O.co2     1 LIG        -0.8000 
     20 OY2       -30.1020  -33.8530    6.1860 O.co2     1 LIG        -0.8000 
     21 HY3       -28.0170  -28.1403    7.9726 H         1 LIG         0.1150 
     22 H41       -24.3063  -28.0612    8.5268 H         1 LIG         0.0600 
     23 H42       -25.6297  -27.1808    7.7512 H         1 LIG         0.0600 
     24 H43       -25.6604  -27.4425    9.4909 H         1 LIG         0.0600 
     25 HY5       -24.4478  -30.4096    8.5844 H         1 LIG         0.1150 
     26 HY6       -25.6574  -32.4584    8.1654 H         1 LIG         0.1150 
     27 HN1       -29.1825  -32.6133    7.1091 H         1 LIG         0.3800 
     28 HX3       -26.7400  -33.3394    9.7970 H         1 LIG         0.1150 
     29 HX4       -26.2594  -35.5514   10.6336 H         1 LIG         0.1150 
     30 HX5       -27.3496  -37.5172    9.6177 H         1 LIG         0.1150 
     31 HX6       -28.8942  -37.2469    7.7450 H         1 LIG         0.1150 
@<TRIPOS>BOND
     1    1    2 2    
     2    2    3 1    
     3    2    4 1    
     4    4    5 ar   
     5    4   10 ar   
     6    5    6 ar   
     7    5   21 1    
     8    6    7 1    
     9    6    8 ar   
    10    7   22 1    
    11    7   23 1    
    12    7   24 1    
    13    8    9 ar   
    14    8   25 1    
    15    9   10 ar   
    16    9   26 1    
    17   10   11 1    
    18   11   12 1    
    19   11   27 1    
    20   12   13 ar   
    21   12   17 ar   
    22   13   14 ar   
    23   13   28 1    
    24   14   15 ar   
    25   14   29 1    
    26   15   16 ar   
    27   15   30 1    
    28   16   17 ar   
    29   16   31 1    
    30   17   18 1    
    31   18   19 2    
    32   18   20 1    
@<TRIPOS>SUBSTRUCTURE
     1 LIG         1 GROUP             0       ****    0 ROOT    
