@<TRIPOS>MOLECULE
:2xb8_ligand
39   40    1
SMALL
USER_CHARGES


@<TRIPOS>ATOM
      1 CAA        20.2440    1.6680   36.8330 C.3       1 LIG         0.1100 
      2 OAN        19.1300    1.4710   35.9620 O.3       1 LIG        -0.2850 
      3 CAR        17.9740    2.0160   36.4940 C.ar      1 LIG         0.0850 
      4 CAK        16.8010    1.6940   35.8640 C.ar      1 LIG        -0.1150 
      5 CAI        15.5680    2.1550   36.2860 C.ar      1 LIG        -0.1150 
      6 CAJ        17.8850    2.8580   37.6010 C.ar      1 LIG        -0.1150 
      7 CAH        16.6240    3.3330   38.0230 C.ar      1 LIG        -0.1150 
      8 CAQ        15.4490    2.9840   37.3600 C.ar      1 LIG        -0.1150 
      9 CAL        14.0320    3.4540   37.7030 C.3       1 LIG        -0.0050 
     10 CAU        13.3690    2.7050   38.8520 C.3       1 LIG        -0.0600 
     11 CAP        13.7620    3.3750   40.1680 C.2       1 LIG         0.4700 
     12 OAC        14.5280    4.3410   40.2000 O.2       1 LIG        -0.4700 
     13 CAT        13.1820    2.8490   41.4630 C.3       1 LIG         0.2050 
     14 OAF        13.4440    3.8120   42.5080 O.3       1 LIG        -0.6830 
     15 CAS        11.6670    2.7290   41.2950 C.3       1 LIG         0.2050 
     16 OAE        11.1380    2.0430   42.4370 O.3       1 LIG        -0.6830 
     17 CAM        11.2430    2.0270   39.9810 C.3       1 LIG        -0.1200 
     18 CAV        11.8430    2.6660   38.7210 C.3       1 LIG         0.1650 
     19 CAO        11.4610    1.8070   37.4960 C.2       1 LIG         0.7000 
     20 OAD        11.5010    0.5520   37.6400 O.co2     1 LIG        -0.8000 
     21 OAB        11.0610    2.4200   36.4670 O.co2     1 LIG        -0.8000 
     22 OAG        11.2760    3.9950   38.5400 O.3       1 LIG        -0.6830 
     23 HAA1       21.1348    1.2533   36.3604 H         1 LIG         0.0300 
     24 HAA2       20.4541    2.7133   37.0482 H         1 LIG         0.0300 
     25 HAA3       20.1049    1.1352   37.7752 H         1 LIG         0.0300 
     26 HAK        16.8371    1.0112   35.0342 H         1 LIG         0.1150 
     27 HAI        14.6886    1.8357   35.7462 H         1 LIG         0.1150 
     28 HAJ        18.7408    3.1555   38.1798 H         1 LIG         0.1150 
     29 HAH        16.5837    3.9875   38.8782 H         1 LIG         0.1150 
     30 HAL1       13.4475    3.3688   36.7899 H         1 LIG         0.0600 
     31 HAL2       14.0516    4.5343   37.8538 H         1 LIG         0.0600 
     32 HAU        13.7391    1.6797   38.8715 H         1 LIG         0.0600 
     33 HAT        13.6390    1.8881   41.7019 H         1 LIG         0.0600 
     34 HOAF       14.3875    3.8842   42.6315 H         1 LIG         0.4180 
     35 HAS        11.2283    3.7288   41.2962 H         1 LIG         0.0600 
     36 HOAE       11.4275    2.5070   43.2088 H         1 LIG         0.4180 
     37 HAM1       10.1540    2.0137   39.9112 H         1 LIG         0.0600 
     38 HAM2       11.5522    0.9836   40.0654 H         1 LIG         0.0600 
     39 HOAG       11.3911    4.2231   37.6284 H         1 LIG         0.4180 
@<TRIPOS>BOND
     1    1    2 1    
     2    1   23 1    
     3    1   24 1    
     4    1   25 1    
     5    2    3 1    
     6    3    4 ar   
     7    3    6 ar   
     8    4    5 ar   
     9    4   26 1    
    10    5    8 ar   
    11    5   27 1    
    12    6    7 ar   
    13    6   28 1    
    14    7    8 ar   
    15    7   29 1    
    16    8    9 1    
    17    9   10 1    
    18    9   30 1    
    19    9   31 1    
    20   10   11 1    
    21   10   18 1    
    22   10   32 1    
    23   11   12 2    
    24   11   13 1    
    25   13   14 1    
    26   13   15 1    
    27   13   33 1    
    28   14   34 1    
    29   15   16 1    
    30   15   17 1    
    31   15   35 1    
    32   16   36 1    
    33   17   18 1    
    34   17   37 1    
    35   17   38 1    
    36   18   19 1    
    37   18   22 1    
    38   19   20 2    
    39   19   21 1    
    40   22   39 1    
@<TRIPOS>SUBSTRUCTURE
     1 LIG         1 GROUP             0       ****    0 ROOT    
