@<TRIPOS>MOLECULE
3RYJ_ligand
27   27    1
SMALL
USER_CHARGES


@<TRIPOS>ATOM
      1 S          15.3836    0.2962   16.9444 S.o2      1 RYJ         0.8327 
      2 N'         18.6345    5.4183   13.8325 N.am      1 RYJ        -0.5000 
      3 O'         16.5092    5.8115   13.1461 O.2       1 RYJ        -0.5000 
      4 C1         16.8624    3.9952   14.6389 C.ar      1 RYJ        -0.1150 
      5 C2         17.2627    1.8010   15.6463 C.ar      1 RYJ        -0.1150 
      6 C3         17.7230    2.9045   14.9065 C.ar      1 RYJ        -0.1150 
      7 C4         15.9398    1.7798   16.1214 C.ar      1 RYJ         0.1567 
      8 C5         15.5368    3.9656   15.1314 C.ar      1 RYJ        -0.1150 
      9 C6         15.0723    2.8638   15.8765 C.ar      1 RYJ        -0.1150 
     10 C7         17.3201    5.1494   13.7935 C.2       1 RYJ         0.6150 
     11 F2'1       20.4997    7.2932   14.9671 F         1 RYJ        -0.2000 
     12 F2'2       18.5406    8.1445   14.6293 F         1 RYJ        -0.2000 
     13 F2'3       20.1844    8.6554   13.3162 F         1 RYJ        -0.2000 
     14 C1'        19.2918    6.5008   13.1065 C.3       1 RYJ         0.1686 
     15 O1S        15.7259    0.3951   18.3690 O.2       1 RYJ        -0.4680 
     16 C2'        19.6340    7.6772   14.0329 C.3       1 RYJ         0.5114 
     17 O2S        15.8346   -0.8529   16.1469 O.2       1 RYJ        -0.4680 
     18 N3S        13.6727    0.3604   16.8283 N.pl3     1 RYJ        -0.7678 
     19 HN'        19.2209    4.8381   14.4141 H         1 RYJ         0.3000 
     20 H2         17.9172    0.9617   15.8311 H         1 RYJ         0.1150 
     21 H3         18.7352    2.8892   14.5297 H         1 RYJ         0.1150 
     22 H5         14.8658    4.7890   14.9353 H         1 RYJ         0.1150 
     23 H6         14.0566    2.8625   16.2408 H         1 RYJ         0.1150 
     24 H1'1       18.6738    6.8490   12.2768 H         1 RYJ         0.0600 
     25 H1'2       20.2056    6.1059   12.6610 H         1 RYJ         0.0600 
     26 H3S1       13.2695    1.0709   17.4401 H         1 RYJ         0.3572 
     27 H3S2       13.3469    0.4673   15.8688 H         1 RYJ         0.3572 
@<TRIPOS>BOND
     1    1    7 1    
     2    1   15 2    
     3    1   17 2    
     4    1   18 1    
     5    2   10 am   BACKBONE|DICT|INTERRES
     6    2   14 1    
     7    2   19 1    
     8    3   10 2    
     9    4    6 ar   
    10    4    8 ar   
    11    4   10 1    
    12    5    6 ar   
    13    5    7 ar   
    14    5   20 1    
    15    6   21 1    
    16    7    9 ar   
    17    8    9 ar   
    18    8   22 1    
    19    9   23 1    
    20   11   16 1    
    21   12   16 1    
    22   13   16 1    
    23   14   16 1    
    24   14   24 1    
    25   14   25 1    
    26   18   26 1    
    27   18   27 1    
@<TRIPOS>SUBSTRUCTURE
     1 RYJ         1 GROUP             0 B     ****    0 ROOT    
