@<TRIPOS>MOLECULE
:2zcr_ligand
53   54    1
SMALL
USER_CHARGES


@<TRIPOS>ATOM
      1 CAA         9.6030   61.6780   37.6620 C.3       1 LIG        -0.1800 
      2 CAP        10.0000   60.3370   38.2800 C.3       1 LIG        -0.1200 
      3 CAQ        11.4430   59.9530   37.9370 C.3       1 LIG        -0.1200 
      4 CAS        11.7280   58.5850   38.5610 C.3       1 LIG        -0.0050 
      5 CAV        13.0590   57.9340   38.1750 C.ar      1 LIG        -0.1150 
      6 CAI        13.1960   57.2880   36.9500 C.ar      1 LIG        -0.1150 
      7 CAM        14.2900   56.4650   36.7060 C.ar      1 LIG        -0.1150 
      8 CAH        14.0400   57.7730   39.1450 C.ar      1 LIG        -0.1150 
      9 CAL        15.1350   56.9520   38.9010 C.ar      1 LIG        -0.1150 
     10 CAX        15.2640   56.2920   37.6840 C.ar      1 LIG         0.0000 
     11 CAY        16.4110   55.5450   37.4380 C.ar      1 LIG         0.0000 
     12 CAO        17.0740   54.9240   38.4920 C.ar      1 LIG        -0.1150 
     13 CAK        18.2950   54.2940   38.2670 C.ar      1 LIG        -0.1150 
     14 CAN        16.9620   55.5140   36.1630 C.ar      1 LIG        -0.1150 
     15 CAJ        18.1830   54.8860   35.9390 C.ar      1 LIG        -0.1150 
     16 CAW        18.8540   54.2790   36.9950 C.ar      1 LIG        -0.1150 
     17 CAT        20.2220   53.6230   36.7780 C.3       1 LIG        -0.0050 
     18 CAR        20.1110   52.0980   36.7290 C.3       1 LIG        -0.1200 
     19 CAU        21.4080   51.4360   37.1990 C.3       1 LIG        -0.0086 
     20 CAZ        22.5900   51.7140   36.2700 C.3       1 LIG        -0.5508 
     21 PBA        22.6190   50.5110   34.8790 P.3       1 LIG         1.3425 
     22 OAC        23.9080   50.8500   33.9740 O.co2     1 LIG        -0.9700 
     23 OAD        22.8820   49.0690   35.5430 O.3       1 LIG        -0.6925 
     24 OAB        21.3680   50.5640   34.0890 O.co2     1 LIG        -0.9700 
     25 SBB        24.1430   51.6000   37.2320 S.3       1 LIG         1.4537 
     26 OAG        25.2460   51.9260   36.3830 O.co2     1 LIG        -0.7664 
     27 OAF        24.3020   50.2040   37.7550 O.co2     1 LIG        -0.7664 
     28 OAE        24.0800   52.5610   38.3840 O.co2     1 LIG        -0.7664 
     29 HAA1        8.5366   61.8313   37.7980 H         1 LIG         0.0600 
     30 HAA2       10.1221   62.5000   38.1520 H         1 LIG         0.0600 
     31 HAA3        9.8328   61.7204   36.6013 H         1 LIG         0.0600 
     32 HAP1        9.3167   59.5677   37.9171 H         1 LIG         0.0600 
     33 HAP2        9.8752   60.3839   39.3611 H         1 LIG         0.0600 
     34 HAQ1       12.1493   60.6942   38.3123 H         1 LIG         0.0600 
     35 HAQ2       11.5657   59.9029   36.8538 H         1 LIG         0.0600 
     36 HAS1       10.9325   57.9018   38.2894 H         1 LIG         0.0600 
     37 HAS2       11.6868   58.6903   39.6445 H         1 LIG         0.0600 
     38 HAI        12.4175   57.3719   36.2058 H         1 LIG         0.1150 
     39 HAM        14.3498   55.9561   35.7550 H         1 LIG         0.1150 
     40 HAH        13.9359   58.2458   40.1098 H         1 LIG         0.1150 
     41 HAL        15.8839   56.8829   39.6756 H         1 LIG         0.1150 
     42 HAO        16.6693   54.9071   39.4900 H         1 LIG         0.1150 
     43 HAK        18.8058   53.8220   39.0917 H         1 LIG         0.1150 
     44 HAN        16.4990   56.0305   35.3365 H         1 LIG         0.1150 
     45 HAJ        18.6163   54.9024   34.9505 H         1 LIG         0.1150 
     46 HAT1       20.8716   53.9447   37.5933 H         1 LIG         0.0600 
     47 HAT2       20.6678   54.0060   35.8590 H         1 LIG         0.0600 
     48 HAR1       19.7994   51.7622   35.7403 H         1 LIG         0.0600 
     49 HAR2       19.3279   51.7715   37.4141 H         1 LIG         0.0600 
     50 HAU1       21.2722   50.3634   37.3400 H         1 LIG         0.0600 
     51 HAU2       21.6367   51.8530   38.1673 H         1 LIG         0.0600 
     52 HAZ        22.5130   52.7168   35.8860 H         1 LIG         0.1950 
     53 HOAD       23.4828   49.1784   36.2665 H         1 LIG         0.3800 
@<TRIPOS>BOND
     1    1    2 1    
     2    1   29 1    
     3    1   30 1    
     4    1   31 1    
     5    2    3 1    
     6    2   32 1    
     7    2   33 1    
     8    3    4 1    
     9    3   34 1    
    10    3   35 1    
    11    4    5 1    
    12    4   36 1    
    13    4   37 1    
    14    5    6 ar   
    15    5    8 ar   
    16    6    7 ar   
    17    6   38 1    
    18    7   10 ar   
    19    7   39 1    
    20    8    9 ar   
    21    8   40 1    
    22    9   10 ar   
    23    9   41 1    
    24   10   11 1    
    25   11   12 ar   
    26   11   14 ar   
    27   12   13 ar   
    28   12   42 1    
    29   13   16 ar   
    30   13   43 1    
    31   14   15 ar   
    32   14   44 1    
    33   15   16 ar   
    34   15   45 1    
    35   16   17 1    
    36   17   18 1    
    37   17   46 1    
    38   17   47 1    
    39   18   19 1    
    40   18   48 1    
    41   18   49 1    
    42   19   20 1    
    43   19   50 1    
    44   19   51 1    
    45   20   21 1    
    46   20   25 1    
    47   20   52 1    
    48   21   22 2    
    49   21   23 1    
    50   21   24 1    
    51   23   53 1    
    52   25   26 2    
    53   25   27 2    
    54   25   28 1    
@<TRIPOS>SUBSTRUCTURE
     1 LIG         1 GROUP             0       ****    0 ROOT    
