@<TRIPOS>MOLECULE
:3u9q_ligand
31   30    1
SMALL
USER_CHARGES


@<TRIPOS>ATOM
      1 C1          3.5090    3.8460   20.2220 C.2       1 LIG         0.7000 
      2 O1          2.5500    4.0310   19.4740 O.co2     1 LIG        -0.8000 
      3 C2          3.3640    3.1980   21.5910 C.3       1 LIG        -0.2200 
      4 C3          2.5490    1.8960   21.5000 C.3       1 LIG        -0.1200 
      5 C4          2.8540    0.8800   22.5970 C.3       1 LIG        -0.1200 
      6 C5          1.7040   -0.0950   22.7900 C.3       1 LIG        -0.1200 
      7 C6          1.8960   -0.9800   24.0220 C.3       1 LIG        -0.1200 
      8 C7          0.9460   -2.1600   24.0050 C.3       1 LIG        -0.1200 
      9 C8          1.3000   -3.2130   25.0520 C.3       1 LIG        -0.1200 
     10 C9          0.1070   -3.4990   25.9530 C.3       1 LIG        -0.1200 
     11 C10         0.2580   -2.8530   27.3100 C.3       1 LIG        -0.1800 
     12 O2          4.6950    4.2400   19.7470 O.co2     1 LIG        -0.8000 
     13 H21         2.9059    3.8985   22.2899 H         1 LIG         0.0600 
     14 H22         4.3666    2.9863   21.9654 H         1 LIG         0.0600 
     15 H31         2.7088    1.4071   20.5377 H         1 LIG         0.0600 
     16 H32         1.4933    2.1694   21.5317 H         1 LIG         0.0600 
     17 H41         3.0349    1.4057   23.5362 H         1 LIG         0.0600 
     18 H42         3.7693    0.3513   22.3398 H         1 LIG         0.0600 
     19 H51         1.6157   -0.7084   21.8923 H         1 LIG         0.0600 
     20 H52         0.7588    0.4400   22.8878 H         1 LIG         0.0600 
     21 H61         1.8255   -0.4066   24.9407 H         1 LIG         0.0600 
     22 H62         2.8952   -1.3803   23.9525 H         1 LIG         0.0600 
     23 H71         0.9714   -2.6368   23.0247 H         1 LIG         0.0600 
     24 H72        -0.0654   -1.7729   24.1254 H         1 LIG         0.0600 
     25 H81         2.1672   -2.9164   25.6413 H         1 LIG         0.0600 
     26 H82         1.5954   -4.1301   24.5412 H         1 LIG         0.0600 
     27 H91         0.0336   -4.5765   26.1041 H         1 LIG         0.0600 
     28 H92        -0.8401   -3.2094   25.4998 H         1 LIG         0.0600 
     29 H101       -0.5932   -3.0305   27.9595 H         1 LIG         0.0600 
     30 H102        1.1235   -3.2404   27.8289 H         1 LIG         0.0600 
     31 H103        0.3859   -1.7825   27.1942 H         1 LIG         0.0600 
@<TRIPOS>BOND
     1    1    2 2    
     2    1    3 1    
     3    1   12 1    
     4    3    4 1    
     5    3   13 1    
     6    3   14 1    
     7    4    5 1    
     8    4   15 1    
     9    4   16 1    
    10    5    6 1    
    11    5   17 1    
    12    5   18 1    
    13    6    7 1    
    14    6   19 1    
    15    6   20 1    
    16    7    8 1    
    17    7   21 1    
    18    7   22 1    
    19    8    9 1    
    20    8   23 1    
    21    8   24 1    
    22    9   10 1    
    23    9   25 1    
    24    9   26 1    
    25   10   11 1    
    26   10   27 1    
    27   10   28 1    
    28   11   29 1    
    29   11   30 1    
    30   11   31 1    
@<TRIPOS>SUBSTRUCTURE
     1 LIG         1 GROUP             0       ****    0 ROOT    
