@<TRIPOS>MOLECULE
:1k1i_ligand
64   67    1
SMALL
USER_CHARGES


@<TRIPOS>ATOM
      1 C65        -1.9460   16.3580   17.9190 C.ar      1 LIG        -0.0800 
      2 C66        -2.1720   15.7500   16.6690 C.ar      1 LIG        -0.0900 
      3 C64        -1.2090   15.6570   18.9080 C.ar      1 LIG         0.0130 
      4 C63        -0.7120   14.3700   18.6440 C.ar      1 LIG        -0.1060 
      5 C62        -0.9510   13.7740   17.3880 C.ar      1 LIG        -0.0900 
      6 C61        -1.6850   14.4660   16.3940 C.ar      1 LIG        -0.1190 
      7 C25        -1.9390   13.8370   15.0520 C.2       1 LIG         0.8270 
      8 N43        -1.5300   12.6220   14.8450 N.pl3     1 LIG        -0.8850 
      9 N54        -2.5590   14.5170   14.1140 N.pl3     1 LIG        -0.8850 
     10 C34        -2.4960   17.7690   18.1950 C.3       1 LIG         0.0317 
     11 C31        -1.5620   18.8980   17.7300 C.3       1 LIG         0.1321 
     12 C35        -0.0870   18.6680   18.0210 C.2       1 LIG         0.5000 
     13 O36         0.5340   18.1360   17.1000 O.2       1 LIG        -0.5000 
     14 N81         0.5010   19.0230   19.2100 N.am      1 LIG        -0.1400 
     15 C71        -0.2470   19.8150   20.2320 C.3       1 LIG        -0.0900 
     16 C72         0.6530   21.0230   20.5920 C.3       1 LIG        -0.1200 
     17 C74         2.7150   19.5710   19.9480 C.3       1 LIG        -0.1200 
     18 C75         1.7780   18.3950   19.6130 C.3       1 LIG        -0.0500 
     19 C40         2.0670   20.6970   20.6950 C.3       1 LIG        -0.1200 
     20 C91        -0.5820   18.9880   21.4490 C.2       1 LIG         0.7000 
     21 O92        -0.9650   19.5460   22.5220 O.co2     1 LIG        -0.8000 
     22 O93        -0.5010   17.7150   21.4050 O.co2     1 LIG        -0.8000 
     23 N29        -1.7630   19.2270   16.3130 N.pl3     1 LIG        -0.6527 
     24 S12        -2.1700   20.8310   15.8680 S.o2      1 LIG         0.8327 
     25 O32        -2.4500   20.8760   14.4610 O.2       1 LIG        -0.4680 
     26 O33        -3.0810   21.3790   16.8160 O.2       1 LIG        -0.4680 
     27 C2         -0.6520   21.6130   16.0820 C.ar      1 LIG         0.1567 
     28 C3          0.4730   21.0990   15.4000 C.ar      1 LIG        -0.1150 
     29 C4          1.7430   21.7340   15.5420 C.ar      1 LIG        -0.1150 
     30 C9          0.6820   23.4060   17.0380 C.ar      1 LIG         0.0000 
     31 C10         1.8520   22.9000   16.3680 C.ar      1 LIG         0.0000 
     32 C1         -0.5600   22.7480   16.8740 C.ar      1 LIG        -0.1150 
     33 C5          3.0890   23.5910   16.5510 C.ar      1 LIG        -0.1150 
     34 C6          3.1560   24.7650   17.3910 C.ar      1 LIG        -0.1150 
     35 C7          1.9960   25.2380   18.0410 C.ar      1 LIG        -0.1150 
     36 C8          0.7660   24.5690   17.8660 C.ar      1 LIG        -0.1150 
     37 H66        -2.7318   16.3060   15.9330 H         1 LIG         0.1290 
     38 H64        -1.0562   16.0779   19.8809 H         1 LIG         0.1190 
     39 H63        -0.2228   13.8380   19.4400 H         1 LIG         0.1410 
     40 H62        -0.8227   12.7232   17.3492 H         1 LIG         0.1290 
     41 H431       -1.8541   12.1124   14.0311 H         1 LIG         0.4455 
     42 H432       -0.9906   12.1399   15.5563 H         1 LIG         0.4455 
     43 H541       -2.8655   14.0233   13.2827 H         1 LIG         0.4455 
     44 H542       -2.8953   15.4602   14.2720 H         1 LIG         0.4455 
     45 H341       -2.6660   17.8614   19.2685 H         1 LIG         0.0600 
     46 H342       -3.4788   17.8696   17.7319 H         1 LIG         0.0600 
     47 H31        -1.9301   19.7783   18.2299 H         1 LIG         0.0733 
     48 H71        -1.1899   20.2588   19.9462 H         1 LIG         0.0600 
     49 H721        0.3061   21.5486   21.4832 H         1 LIG         0.0600 
     50 H722        0.5478   21.7461   19.7817 H         1 LIG         0.0600 
     51 H741        3.6125   19.2200   20.4592 H         1 LIG         0.0600 
     52 H742        3.0512   19.9843   18.9975 H         1 LIG         0.0600 
     53 H751        2.2279   17.7961   18.8267 H         1 LIG         0.0600 
     54 H752        1.6801   17.7291   20.4621 H         1 LIG         0.0600 
     55 H401        2.2187   20.4471   21.7465 H         1 LIG         0.0600 
     56 H402        2.6559   21.6043   20.5535 H         1 LIG         0.0600 
     57 HN29       -1.1146   18.7629   15.6725 H         1 LIG         0.3572 
     58 H3          0.3936   20.2367   14.7664 H         1 LIG         0.1150 
     59 H4          2.6073   21.3409   15.0262 H         1 LIG         0.1150 
     60 H1         -1.4339   23.1373   17.3755 H         1 LIG         0.1150 
     61 H5          3.9837   23.2357   16.0607 H         1 LIG         0.1150 
     62 H6          4.0968   25.2785   17.5246 H         1 LIG         0.1150 
     63 H7          2.0494   26.1139   18.6707 H         1 LIG         0.1150 
     64 H8         -0.1154   24.9420   18.3672 H         1 LIG         0.1150 
@<TRIPOS>BOND
     1    1   10 1    
     2    1    3 ar   
     3    1    2 ar   
     4    2    6 ar   
     5    2   37 1    
     6    3    4 ar   
     7    3   38 1    
     8    4    5 ar   
     9    4   39 1    
    10    5    6 ar   
    11    5   40 1    
    12    6    7 1    
    13    7    9 2    
    14    7    8 1    
    15    8   41 1    
    16    8   42 1    
    17    9   43 1    
    18    9   44 1    
    19   10   11 1    
    20   10   45 1    
    21   10   46 1    
    22   11   23 1    
    23   11   12 1    
    24   11   47 1    
    25   12   14 am   BACKBONE|DICT|INTERRES
    26   12   13 2    
    27   14   18 1    
    28   14   15 1    
    29   15   20 1    
    30   15   16 1    
    31   15   48 1    
    32   16   19 1    
    33   16   49 1    
    34   16   50 1    
    35   17   19 1    
    36   17   18 1    
    37   17   51 1    
    38   17   52 1    
    39   18   53 1    
    40   18   54 1    
    41   19   55 1    
    42   19   56 1    
    43   20   22 1    
    44   20   21 2    
    45   23   24 1    
    46   23   57 1    
    47   24   27 1    
    48   24   26 2    
    49   24   25 2    
    50   27   32 ar   
    51   27   28 ar   
    52   28   29 ar   
    53   28   58 1    
    54   29   31 ar   
    55   29   59 1    
    56   30   31 ar   
    57   30   36 ar   
    58   30   32 ar   
    59   31   33 ar   
    60   32   60 1    
    61   33   34 ar   
    62   33   61 1    
    63   34   35 ar   
    64   34   62 1    
    65   35   36 ar   
    66   35   63 1    
    67   36   64 1    
@<TRIPOS>SUBSTRUCTURE
     1 LIG         1 GROUP             0       ****    0 ROOT    
