@<TRIPOS>MOLECULE
:1qf1_ligand
52   52    1
SMALL
USER_CHARGES


@<TRIPOS>ATOM
      1 SG         34.1310   43.3010   -7.0630 S.3       1 LIG        -0.9000 
      2 CA1        34.4690   41.5490   -6.5380 C.3       1 LIG        -0.2000 
      3 CB1        35.1010   40.6960   -7.6440 C.3       1 LIG        -0.1200 
      4 CG1        34.1900   39.6960   -8.2710 C.3       1 LIG        -0.1200 
      5 CD1        33.8010   38.6400   -7.2630 C.3       1 LIG        -0.1200 
      6 CE1        32.7830   37.6990   -7.8710 C.3       1 LIG        -0.1200 
      7 CF1        32.4120   36.6230   -6.9030 C.3       1 LIG        -0.1800 
      8 C1         35.5610   41.8690   -5.5230 C.2       1 LIG         0.5000 
      9 O1         36.6450   42.3190   -5.9160 O.2       1 LIG        -0.5000 
     10 N2         35.2970   41.6760   -4.2370 N.am      1 LIG        -0.5000 
     11 CA2        36.3130   42.0200   -3.2480 C.3       1 LIG         0.1400 
     12 CB2        35.7380   42.0520   -1.8300 C.3       1 LIG        -0.0050 
     13 CG2        36.6050   42.7960   -0.8590 C.ar      1 LIG        -0.1150 
     14 CD3        36.9100   44.1430   -1.0760 C.ar      1 LIG        -0.1150 
     15 CD4        37.1720   42.1470    0.2340 C.ar      1 LIG        -0.1150 
     16 CE3        37.7740   44.8300   -0.2190 C.ar      1 LIG        -0.1150 
     17 CE4        38.0400   42.8280    1.0980 C.ar      1 LIG        -0.1150 
     18 CZ2        38.3400   44.1690    0.8660 C.ar      1 LIG        -0.1150 
     19 C2         37.5570   41.1310   -3.2890 C.2       1 LIG         0.5000 
     20 O2         38.6880   41.6340   -3.2900 O.2       1 LIG        -0.5000 
     21 N3         37.3470   39.8200   -3.3240 N.am      1 LIG        -0.5000 
     22 CA3        38.4450   38.8600   -3.3560 C.3       1 LIG         0.0400 
     23 CB3        38.3580   37.9350   -2.1490 C.3       1 LIG        -0.1800 
     24 C3         38.4340   38.0570   -4.6560 C.2       1 LIG         0.7000 
     25 O3         37.3870   38.0180   -5.3340 O.co2     1 LIG        -0.8000 
     26 OXT        39.4860   37.5040   -5.0180 O.co2     1 LIG        -0.8000 
     27 HA1        33.5928   41.1222   -6.0728 H         1 LIG         0.1000 
     28 HB11       35.9965   40.1718   -7.3111 H         1 LIG         0.0600 
     29 HB12       35.3879   41.3783   -8.4243 H         1 LIG         0.0600 
     30 HG11       34.6813   39.2353   -9.1292 H         1 LIG         0.0600 
     31 HG12       33.3028   40.2051   -8.6507 H         1 LIG         0.0600 
     32 HD11       33.3900   39.0559   -6.3465 H         1 LIG         0.0600 
     33 HD12       34.6900   38.0809   -6.9669 H         1 LIG         0.0600 
     34 HE11       33.1710   37.2522   -8.7872 H         1 LIG         0.0600 
     35 HE12       31.8871   38.2574   -8.1466 H         1 LIG         0.0600 
     36 HF11       31.5805   36.0237   -7.2743 H         1 LIG         0.0600 
     37 HF12       33.2516   35.9561   -6.7053 H         1 LIG         0.0600 
     38 HF13       32.1221   37.0835   -5.9609 H         1 LIG         0.0600 
     39 HN2        34.3831   41.3562   -3.9393 H         1 LIG         0.3000 
     40 HA2        36.6362   43.0347   -3.4889 H         1 LIG         0.0600 
     41 HB21       35.5383   41.0423   -1.4670 H         1 LIG         0.0600 
     42 HB22       34.7707   42.5516   -1.8339 H         1 LIG         0.0600 
     43 HD3        36.4741   44.6700   -1.9124 H         1 LIG         0.1150 
     44 HD4        36.9592   41.1033    0.4151 H         1 LIG         0.1150 
     45 HE3        37.9935   45.8732   -0.3944 H         1 LIG         0.1150 
     46 HE4        38.4743   42.3127    1.9416 H         1 LIG         0.1150 
     47 HZ2        38.9837   44.7085    1.5365 H         1 LIG         0.1150 
     48 HN3        36.3994   39.4641   -3.3496 H         1 LIG         0.3000 
     49 HA3        39.4185   39.3503   -3.3147 H         1 LIG         0.0600 
     50 HB31       39.2225   37.2725   -2.0932 H         1 LIG         0.0600 
     51 HB32       38.3108   38.4970   -1.2165 H         1 LIG         0.0600 
     52 HB33       37.4633   37.3117   -2.1908 H         1 LIG         0.0600 
@<TRIPOS>BOND
     1    1    2 1    
     2    2    8 1    
     3    2    3 1    
     4    2   27 1    
     5    3    4 1    
     6    3   28 1    
     7    3   29 1    
     8    4    5 1    
     9    4   30 1    
    10    4   31 1    
    11    5    6 1    
    12    5   32 1    
    13    5   33 1    
    14    6    7 1    
    15    6   34 1    
    16    6   35 1    
    17    7   36 1    
    18    7   37 1    
    19    7   38 1    
    20    8   10 am   BACKBONE|DICT|INTERRES
    21    8    9 2    
    22   10   11 1    
    23   10   39 1    
    24   11   19 1    
    25   11   12 1    
    26   11   40 1    
    27   12   13 1    
    28   12   41 1    
    29   12   42 1    
    30   13   15 ar   
    31   13   14 ar   
    32   14   16 ar   
    33   14   43 1    
    34   15   17 ar   
    35   15   44 1    
    36   16   18 ar   
    37   16   45 1    
    38   17   18 ar   
    39   17   46 1    
    40   18   47 1    
    41   19   21 am   BACKBONE|DICT|INTERRES
    42   19   20 2    
    43   21   22 1    
    44   21   48 1    
    45   22   24 1    
    46   22   23 1    
    47   22   49 1    
    48   23   50 1    
    49   23   51 1    
    50   23   52 1    
    51   24   26 1    
    52   24   25 2    
@<TRIPOS>SUBSTRUCTURE
     1 LIG         1 GROUP             0       ****    0 ROOT    
