:3n86_ligand
                    3D
 Schrodinger Suite 2020-1.
 41 42  0  0  1  0            999 V2000
   28.3480   26.8320   -3.6200 O   0  0  0  0  0  0
   31.4300   25.0960    3.0840 O   0  0  0  0  0  0
   29.5250   24.3920    4.0370 O   0  5  0  0  0  0
   27.6360   20.9350    0.7890 O   0  0  0  0  0  0
   28.2490   22.4290   -1.7040 O   0  0  0  0  0  0
   31.3880   22.8590    1.5820 O   0  0  0  0  0  0
   29.5260   26.3620   -1.6360 C   0  0  0  0  0  0
   28.8800   25.0060   -1.6410 C   0  0  0  0  0  0
   29.8980   24.5330    0.6260 C   0  0  0  0  0  0
   27.2460   31.9370   -3.7590 C   0  0  0  0  0  0
   26.9560   30.7130   -4.3700 C   0  0  0  0  0  0
   28.0660   32.0340   -2.6110 C   0  0  0  0  0  0
   27.5010   29.5560   -3.7940 C   0  0  0  0  0  0
   28.6290   30.8830   -2.0450 C   0  0  0  0  0  0
   28.9690   22.6180    2.0450 C   0  0  0  0  0  0
   28.8810   28.5370   -2.0980 N   0  0  0  0  0  0
   28.8010   27.2710   -2.5560 C   0  0  0  0  0  0
   30.3500   24.4490    3.0760 C   0  0  0  0  0  0
   29.1180   24.1340   -0.4150 C   0  0  0  0  0  0
   28.3330   29.6610   -2.6620 C   0  0  0  0  0  0
   28.6940   21.8970    0.6970 C   0  0  2  0  0  0
   28.5910   22.8820   -0.4770 C   0  0  2  0  0  0
   30.1300   23.6300    1.8360 C   0  0  1  0  0  0
   27.9618   20.1043    0.4597 H   0  0  0  0  0  0
   27.5448   22.9606   -2.0621 H   0  0  0  0  0  0
   32.0992   23.4811    1.4963 H   0  0  0  0  0  0
   30.5784   26.2959   -1.9144 H   0  0  0  0  0  0
   29.4696   26.8050   -0.6416 H   0  0  0  0  0  0
   29.2657   24.4652   -2.4878 H   0  0  0  0  0  0
   27.7994   25.0861   -1.7736 H   0  0  0  0  0  0
   30.3843   25.4944    0.6603 H   0  0  0  0  0  0
   26.8332   32.8451   -4.1652 H   0  0  0  0  0  0
   26.3161   30.6575   -5.2387 H   0  0  0  0  0  0
   28.2623   32.9995   -2.1689 H   0  0  0  0  0  0
   27.2096   28.6429   -4.2785 H   0  0  0  0  0  0
   29.2610   30.9452   -1.1707 H   0  0  0  0  0  0
   29.2450   21.8983    2.8114 H   0  0  0  0  0  0
   28.0568   23.1201    2.3710 H   0  0  0  0  0  0
   29.3789   28.6762   -1.2310 H   0  0  0  0  0  0
   29.5747   21.2871    0.4901 H   0  0  0  0  0  0
   27.5815   23.2238   -0.2427 H   0  0  0  0  0  0
  1 17  2  0  0  0
  2 18  2  0  0  0
  3 18  1  0  0  0
  4 21  1  0  0  0
  4 24  1  0  0  0
  5 22  1  0  0  0
  5 25  1  0  0  0
  6 23  1  0  0  0
  6 26  1  0  0  0
  7  8  1  0  0  0
  7 17  1  0  0  0
  7 27  1  0  0  0
  7 28  1  0  0  0
  8 19  1  0  0  0
  8 29  1  0  0  0
  8 30  1  0  0  0
  9 19  2  0  0  0
  9 23  1  0  0  0
  9 31  1  0  0  0
 10 11  2  0  0  0
 10 12  1  0  0  0
 10 32  1  0  0  0
 11 13  1  0  0  0
 11 33  1  0  0  0
 12 14  2  0  0  0
 12 34  1  0  0  0
 13 20  2  0  0  0
 13 35  1  0  0  0
 14 20  1  0  0  0
 14 36  1  0  0  0
 15 21  1  0  0  0
 15 23  1  0  0  0
 15 37  1  0  0  0
 15 38  1  0  0  0
 16 17  1  0  0  0
 16 20  1  0  0  0
 16 39  1  0  0  0
 18 23  1  0  0  0
 19 22  1  0  0  0
 21 22  1  0  0  0
 21 40  1  0  0  0
 22 41  1  0  0  0
M  CHG  1   3  -1
M  END
> <s_pdb_PDB_ID>


> <s_pdb_PDB_CLASSIFICATION>
3N86_PROTEIN

> <s_pdb_PDB_format_version>
3.0

> <b_ppw_prepared>
1

> <s_ppw_prepared_with_version>
2020-1

> <b_ppw_created_disulfur>
1

> <s_ppw_het_states>
eJxlkkEOgyAQRa9CXGPDoCLTqzTewHTXlfHuVRjt07ogj48zn/m6NNI83Wt7pM959C5M3hXOYPWuFdto+B2ogCO4A/fgAZzAMFYYq56sIYAFHMEduAcP4AQewRlcfPfNEYs1j0jHPCJCMolRmYsgMTMTBGeegvwsuqtULiFI1oYTBGxSvElsn2r7EW+ZxHuNVWKhjR1QaGOnUyrHJgk+2DWJU1JI8T7jKbFX/1843FOtVoe0aW14bNdamk407b/8vl+9e3/mua7TtH4BD+Cj4A==

> <r_ff_Potential_Energy-OPLS3e>
-1405585.32608778

> <r_ff_RMS_Derivative-OPLS3e>
0.0474287628077428

> <b_ff_Minimization_Converged-OPLS3e>
1

> <r_i_Potential_Energy-OPLS_2005>
-54140.6575723015

> <r_i_RMS_Derivative-OPLS_2005>
0.0490639026074931

> <r_i_Max_Derivative-OPLS_2005>
2.78262324166227

> <r_i_Stretch_Energy-OPLS_2005>
56.7843166824199

> <r_i_Bend_Energy-OPLS_2005>
1387.4216123041

> <r_i_LJ-14_Energy-OPLS_2005>
2311.18259380494

> <r_i_El-14_Energy-OPLS_2005>
-2531.88276152453

> <r_i_Van_der_Waals_Energy-OPLS_2005>
-3976.01180942289

> <r_i_Electrostatic_Energy-OPLS_2005>
-52209.9356476643

> <r_i_Dihedral_Energy-OPLS_2005>
821.784123518687

> <r_i_target_temperature>
298

> <s_user_Residue_ID>
_:1

$$$$
