@<TRIPOS>MOLECULE
:3n86_ligand
41   42    1
SMALL
USER_CHARGES


@<TRIPOS>ATOM
      1 OAA        28.3480   26.8320   -3.6200 O.2       1 LIG        -0.5000 
      2 OAB        31.4300   25.0960    3.0840 O.co2     1 LIG        -0.8000 
      3 OAC        29.5250   24.3920    4.0370 O.co2     1 LIG        -0.8000 
      4 OAD        27.6360   20.9350    0.7890 O.3       1 LIG        -0.6830 
      5 OAE        28.2490   22.4290   -1.7040 O.3       1 LIG        -0.6830 
      6 OAF        31.3880   22.8590    1.5820 O.3       1 LIG        -0.6830 
      7 CAG        29.5260   26.3620   -1.6360 C.3       1 LIG        -0.1200 
      8 CAH        28.8800   25.0060   -1.6410 C.3       1 LIG        -0.1200 
      9 CAI        29.8980   24.5330    0.6260 C.2       1 LIG        -0.1150 
     10 CAJ        27.2460   31.9370   -3.7590 C.ar      1 LIG        -0.1150 
     11 CAK        26.9560   30.7130   -4.3700 C.ar      1 LIG        -0.1150 
     12 CAL        28.0660   32.0340   -2.6110 C.ar      1 LIG        -0.1150 
     13 CAM        27.5010   29.5560   -3.7940 C.ar      1 LIG        -0.1150 
     14 CAN        28.6290   30.8830   -2.0450 C.ar      1 LIG        -0.1150 
     15 CAO        28.9690   22.6180    2.0450 C.3       1 LIG        -0.1200 
     16 NAP        28.8810   28.5370   -2.0980 N.am      1 LIG        -0.3850 
     17 CAQ        28.8010   27.2710   -2.5560 C.2       1 LIG         0.5000 
     18 CAR        30.3500   24.4490    3.0760 C.2       1 LIG         0.7000 
     19 CAS        29.1180   24.1340   -0.4150 C.2       1 LIG         0.0000 
     20 CAT        28.3330   29.6610   -2.6620 C.ar      1 LIG         0.0850 
     21 CAU        28.6940   21.8970    0.6970 C.3       1 LIG         0.2050 
     22 CAV        28.5910   22.8820   -0.4770 C.3       1 LIG         0.2050 
     23 CAW        30.1300   23.6300    1.8360 C.3       1 LIG         0.1650 
     24 HOAD       27.9618   20.1043    0.4597 H         1 LIG         0.4180 
     25 HOAE       27.5448   22.9606   -2.0621 H         1 LIG         0.4180 
     26 HOAF       32.0992   23.4811    1.4963 H         1 LIG         0.4180 
     27 HAG1       30.5784   26.2959   -1.9144 H         1 LIG         0.0600 
     28 HAG2       29.4696   26.8050   -0.6416 H         1 LIG         0.0600 
     29 HAH1       29.2657   24.4652   -2.4878 H         1 LIG         0.0600 
     30 HAH2       27.7994   25.0861   -1.7736 H         1 LIG         0.0600 
     31 HAI        30.3843   25.4944    0.6603 H         1 LIG         0.1150 
     32 HAJ        26.8332   32.8451   -4.1652 H         1 LIG         0.1150 
     33 HAK        26.3161   30.6575   -5.2387 H         1 LIG         0.1150 
     34 HAL        28.2623   32.9995   -2.1689 H         1 LIG         0.1150 
     35 HAM        27.2096   28.6429   -4.2785 H         1 LIG         0.1150 
     36 HAN        29.2610   30.9452   -1.1707 H         1 LIG         0.1150 
     37 HAO1       29.2450   21.8983    2.8114 H         1 LIG         0.0600 
     38 HAO2       28.0568   23.1201    2.3710 H         1 LIG         0.0600 
     39 HNAP       29.3789   28.6762   -1.2310 H         1 LIG         0.3000 
     40 HAU        29.5747   21.2871    0.4901 H         1 LIG         0.0600 
     41 HAV        27.5815   23.2238   -0.2427 H         1 LIG         0.0600 
@<TRIPOS>BOND
     1    1   17 2    
     2    2   18 2    
     3    3   18 1    
     4    4   21 1    
     5    4   24 1    
     6    5   22 1    
     7    5   25 1    
     8    6   23 1    
     9    6   26 1    
    10    7    8 1    
    11    7   17 1    
    12    7   27 1    
    13    7   28 1    
    14    8   19 1    
    15    8   29 1    
    16    8   30 1    
    17    9   19 2    
    18    9   23 1    
    19    9   31 1    
    20   10   11 ar   
    21   10   12 ar   
    22   10   32 1    
    23   11   13 ar   
    24   11   33 1    
    25   12   14 ar   
    26   12   34 1    
    27   13   20 ar   
    28   13   35 1    
    29   14   20 ar   
    30   14   36 1    
    31   15   21 1    
    32   15   23 1    
    33   15   37 1    
    34   15   38 1    
    35   16   17 am   BACKBONE|DICT|INTERRES
    36   16   20 1    
    37   16   39 1    
    38   18   23 1    
    39   19   22 1    
    40   21   22 1    
    41   21   40 1    
    42   22   41 1    
@<TRIPOS>SUBSTRUCTURE
     1 LIG         1 GROUP             0       ****    0 ROOT    
