@<TRIPOS>MOLECULE
:3arq_ligand
64   68    1
SMALL
USER_CHARGES


@<TRIPOS>ATOM
      1 C1         13.6650   -8.1280   23.8360 C.ar      1 LIG        -0.1150 
      2 C2         13.5570   -7.4830   25.0980 C.ar      1 LIG        -0.1150 
      3 C3         14.6690   -7.1790   25.8780 C.ar      1 LIG        -0.1150 
      4 C4         15.9360   -7.5620   25.4180 C.ar      1 LIG        -0.1150 
      5 C5         16.0720   -8.2170   24.1610 C.ar      1 LIG        -0.1150 
      6 C6         17.3320   -8.5790   23.6900 C.2       1 LIG         0.7000 
      7 O6         18.3600   -8.3490   24.3480 O.2       1 LIG        -0.4700 
      8 C7         17.4560   -9.2270   22.4290 C.ar      1 LIG        -0.1150 
      9 C8         18.7540   -9.6240   22.0200 C.ar      1 LIG         0.1500 
     10 O8         19.6710   -9.3510   22.8170 O.3       1 LIG        -0.5850 
     11 C9         18.8630  -10.2990   20.7810 C.ar      1 LIG        -0.0418 
     12 C10        20.2630  -10.7800   20.3350 C.3       1 LIG         0.2118 
     13 O10        20.4530  -11.9750   21.2510 O.3       1 LIG        -0.4000 
     14 C11        20.3860  -11.4810   18.9610 C.3       1 LIG        -0.1200 
     15 C12        19.1070  -12.2530   18.5360 C.3       1 LIG         0.2650 
     16 O12        19.0600  -13.4020   19.5050 O.3       1 LIG        -0.6830 
     17 C13        19.1400  -12.7500   17.0730 C.2       1 LIG         0.4700 
     18 O13        19.1010  -13.9690   16.8580 O.2       1 LIG        -0.4700 
     19 C14        19.2810  -11.7650   15.8590 C.3       1 LIG        -0.1800 
     20 C15        17.8910  -11.3320   18.6420 C.3       1 LIG        -0.0050 
     21 C16        17.7660  -10.5720   20.0090 C.ar      1 LIG        -0.1150 
     22 C17        16.5080  -10.1970   20.4120 C.ar      1 LIG         0.1500 
     23 O17        15.4520  -10.5560   19.6330 O.3       1 LIG        -0.5850 
     24 C18        16.3650   -9.5290   21.6630 C.ar      1 LIG        -0.1150 
     25 C19        15.1030   -9.1460   22.1430 C.2       1 LIG         0.7000 
     26 O19        14.0650   -9.4200   21.5120 O.2       1 LIG        -0.4700 
     27 C20        14.9530   -8.4870   23.3780 C.ar      1 LIG        -0.1150 
     28 C1'        21.7050  -11.8310   22.0250 C.3       1 LIG         0.3000 
     29 C2'        21.6640  -12.8690   23.2270 C.3       1 LIG        -0.1200 
     30 C3'        21.7720  -14.2990   22.6310 C.3       1 LIG         0.2500 
     31 N3'        21.7530  -15.3340   23.7150 N.4       1 LIG        -0.3000 
     32 C4'        23.0380  -14.4680   21.7430 C.3       1 LIG         0.2050 
     33 O4'        24.2240  -14.3440   22.5750 O.3       1 LIG        -0.6830 
     34 C5'        23.0240  -13.4230   20.5890 C.3       1 LIG         0.1700 
     35 O5'        22.7920  -12.0470   21.0520 O.3       1 LIG        -0.4000 
     36 C6'        24.3110  -13.4290   19.7090 C.3       1 LIG        -0.1800 
     37 H1         12.7674   -8.3307   23.2690 H         1 LIG         0.1150 
     38 H2         12.5775   -7.2036   25.4572 H         1 LIG         0.1150 
     39 H3         14.5564   -6.6746   26.8265 H         1 LIG         0.1150 
     40 H4         16.7974   -7.3390   26.0313 H         1 LIG         0.1150 
     41 HO8        19.3422   -8.8971   23.5888 H         1 LIG         0.4350 
     42 H10        21.0262  -10.0226   20.4827 H         1 LIG         0.0300 
     43 H111       21.2808  -12.0907   18.8818 H         1 LIG         0.0600 
     44 H112       20.5368  -10.7014   18.2202 H         1 LIG         0.0600 
     45 HO12       19.1081  -13.0406   20.3793 H         1 LIG         0.4180 
     46 H141       20.1485  -12.0163   15.2499 H         1 LIG         0.0600 
     47 H142       18.3763  -11.7710   15.2527 H         1 LIG         0.0600 
     48 H143       19.4298  -10.7472   16.2137 H         1 LIG         0.0600 
     49 H151       17.0050  -11.9370   18.4450 H         1 LIG         0.0600 
     50 H152       17.9135  -10.5562   17.8795 H         1 LIG         0.0600 
     51 HO17       14.6234  -10.2258   19.9577 H         1 LIG         0.4350 
     52 H1'        21.7893  -10.8174   22.4172 H         1 LIG         0.1000 
     53 H2'1       20.7411  -12.7298   23.7908 H         1 LIG         0.0600 
     54 H2'2       22.4999  -12.6588   23.8948 H         1 LIG         0.0600 
     55 H3'        20.8930  -14.4791   22.0119 H         1 LIG         0.0600 
     56 H3'1       21.7986  -16.2548   23.3046 H         1 LIG         0.3300 
     57 H3'2       22.5557  -15.1955   24.3125 H         1 LIG         0.3300 
     58 H3'3       20.9031  -15.2522   24.2605 H         1 LIG         0.3300 
     59 H4'        23.0482  -15.4691   21.3096 H         1 LIG         0.0600 
     60 HO4'       24.9871  -14.4284   22.0242 H         1 LIG         0.4180 
     61 H5'        22.1876  -13.7019   19.9501 H         1 LIG         0.0300 
     62 H6'1       24.2021  -12.7496   18.8633 H         1 LIG         0.0600 
     63 H6'2       25.1840  -13.1097   20.2783 H         1 LIG         0.0600 
     64 H6'3       24.5110  -14.4244   19.3119 H         1 LIG         0.0600 
@<TRIPOS>BOND
     1    1    2 ar   
     2    1   27 ar   
     3    1   37 1    
     4    2    3 ar   
     5    2   38 1    
     6    3    4 ar   
     7    3   39 1    
     8    4    5 ar   
     9    4   40 1    
    10    5    6 1    
    11    5   27 ar   
    12    6    7 2    
    13    6    8 1    
    14    8    9 ar   
    15    8   24 ar   
    16    9   10 1    
    17    9   11 ar   
    18   10   41 1    
    19   11   12 1    
    20   11   21 ar   
    21   12   13 1    
    22   12   14 1    
    23   12   42 1    
    24   13   28 1    
    25   14   15 1    
    26   14   43 1    
    27   14   44 1    
    28   15   16 1    
    29   15   17 1    
    30   15   20 1    
    31   16   45 1    
    32   17   18 2    
    33   17   19 1    
    34   19   46 1    
    35   19   47 1    
    36   19   48 1    
    37   20   21 1    
    38   20   49 1    
    39   20   50 1    
    40   21   22 ar   
    41   22   23 1    
    42   22   24 ar   
    43   23   51 1    
    44   24   25 1    
    45   25   26 2    
    46   25   27 1    
    47   28   29 1    
    48   28   35 1    
    49   28   52 1    
    50   29   30 1    
    51   29   53 1    
    52   29   54 1    
    53   30   31 1    
    54   30   32 1    
    55   30   55 1    
    56   31   56 1    
    57   31   57 1    
    58   31   58 1    
    59   32   33 1    
    60   32   34 1    
    61   32   59 1    
    62   33   60 1    
    63   34   35 1    
    64   34   36 1    
    65   34   61 1    
    66   36   62 1    
    67   36   63 1    
    68   36   64 1    
@<TRIPOS>SUBSTRUCTURE
     1 LIG         1 GROUP             0       ****    0 ROOT    
