@<TRIPOS>MOLECULE
:3pxf_ligand
33   35    1
SMALL
USER_CHARGES


@<TRIPOS>ATOM
      1 C1        122.8060  133.7390   64.7520 C.ar      1 LIG         0.2000 
      2 C2        123.1690  132.5480   64.0390 C.ar      1 LIG        -0.1150 
      3 C3        122.1960  131.7260   63.4460 C.ar      1 LIG        -0.1150 
      4 C4        120.8370  132.0570   63.5310 C.ar      1 LIG        -0.1150 
      5 C5        120.3990  133.2200   64.2130 C.ar      1 LIG         0.0000 
      6 C6        119.0110  133.5290   64.2760 C.ar      1 LIG        -0.1150 
      7 C7        118.5460  134.6700   64.9420 C.ar      1 LIG        -0.1150 
      8 C8        119.4530  135.5370   65.5670 C.ar      1 LIG        -0.1150 
      9 N         123.7480  134.4790   65.2890 N.pl3     1 LIG        -0.7800 
     10 S         121.8640  136.4760   66.3950 S.3       1 LIG         1.2918 
     11 C9        120.8460  135.2870   65.5420 C.ar      1 LIG         0.0075 
     12 C10       121.3810  134.1110   64.8550 C.ar      1 LIG         0.0000 
     13 C11       124.6910  134.0930   66.1350 C.ar      1 LIG         0.2000 
     14 C12       124.6230  132.8740   66.9080 C.ar      1 LIG        -0.1150 
     15 C13       125.6750  132.5270   67.8100 C.ar      1 LIG        -0.1150 
     16 C14       126.8000  133.3920   67.9490 C.ar      1 LIG        -0.1150 
     17 C15       126.8720  134.5920   67.1900 C.ar      1 LIG        -0.1150 
     18 C16       125.8240  134.9400   66.2910 C.ar      1 LIG        -0.1150 
     19 O1        122.7930  137.0720   65.4610 O.co2     1 LIG        -0.7664 
     20 O2        122.5480  135.7720   67.4650 O.co2     1 LIG        -0.7664 
     21 O3        120.9010  137.6330   67.0540 O.co2     1 LIG        -0.7664 
     22 H2        124.2093  132.2699   63.9515 H         1 LIG         0.1150 
     23 H3        122.4994  130.8333   62.9196 H         1 LIG         0.1150 
     24 H4        120.1123  131.4065   63.0631 H         1 LIG         0.1150 
     25 H6        118.2948  132.8723   63.8039 H         1 LIG         0.1150 
     26 H7        117.4873  134.8818   64.9761 H         1 LIG         0.1150 
     27 H8        119.0596  136.4055   66.0709 H         1 LIG         0.1150 
     28 HN        123.5808  135.4811   65.2789 H         1 LIG         0.3800 
     29 H12       123.7870  132.2017   66.8044 H         1 LIG         0.1150 
     30 H13       125.6464  131.6386   68.4062 H         1 LIG         0.1150 
     31 H14       127.5959  133.1372   68.6332 H         1 LIG         0.1150 
     32 H15       127.7243  135.2462   67.2990 H         1 LIG         0.1150 
     33 H16       125.8944  135.8589   65.7266 H         1 LIG         0.1150 
@<TRIPOS>BOND
     1    1    2 ar   
     2    1    9 1    
     3    1   12 ar   
     4    2    3 ar   
     5    2   22 1    
     6    3    4 ar   
     7    3   23 1    
     8    4    5 ar   
     9    4   24 1    
    10    5    6 ar   
    11    5   12 ar   
    12    6    7 ar   
    13    6   25 1    
    14    7    8 ar   
    15    7   26 1    
    16    8   11 ar   
    17    8   27 1    
    18    9   13 1    
    19    9   28 1    
    20   10   11 1    
    21   10   19 2    
    22   10   20 2    
    23   10   21 1    
    24   11   12 ar   
    25   13   14 ar   
    26   13   18 ar   
    27   14   15 ar   
    28   14   29 1    
    29   15   16 ar   
    30   15   30 1    
    31   16   17 ar   
    32   16   31 1    
    33   17   18 ar   
    34   17   32 1    
    35   18   33 1    
@<TRIPOS>SUBSTRUCTURE
     1 LIG         1 GROUP             0       ****    0 ROOT    
