@<TRIPOS>MOLECULE
:4de2_ligand
42   44    1
SMALL
USER_CHARGES


@<TRIPOS>ATOM
      1 O14        -9.2570   55.8220   13.5960 O.2       1 LIG        -0.5000 
      2 C13        -8.8590   55.9810   12.4460 C.2       1 LIG         0.6150 
      3 C15        -9.6340   56.8840   11.5140 C.ar      1 LIG        -0.1150 
      4 C16        -9.2810   56.9990   10.1710 C.ar      1 LIG        -0.1150 
      5 C17        -9.9640   57.9060    9.3610 C.ar      1 LIG        -0.1150 
      6 C18       -11.0130   58.6660    9.8650 C.ar      1 LIG        -0.1150 
      7 C19       -11.2930   58.6230   11.2310 C.ar      1 LIG        -0.1150 
      8 C21       -12.4100   59.4660   11.8250 C.3       1 LIG         0.2650 
      9 N22       -13.6880   58.9840   11.2650 N.4       1 LIG        -0.1000 
     10 C23       -13.9840   57.6630   11.8460 C.3       1 LIG         0.0900 
     11 C24       -14.7930   59.9020   11.5810 C.3       1 LIG         0.0900 
     12 C20       -10.6200   57.7150   12.0380 C.ar      1 LIG        -0.1150 
     13 N12        -7.7600   55.3740   11.9800 N.am      1 LIG        -0.3850 
     14 C10        -6.9040   54.5610   12.7580 C.ar      1 LIG         0.0850 
     15 C11        -5.5580   54.5190   12.4080 C.ar      1 LIG        -0.1150 
     16 C6         -4.6570   53.7620   13.1500 C.ar      1 LIG         0.0932 
     17 C7         -5.0900   53.0350   14.2540 C.ar      1 LIG        -0.1150 
     18 C8         -6.4250   53.0920   14.6240 C.ar      1 LIG        -0.1150 
     19 C9         -7.3410   53.8320   13.8640 C.ar      1 LIG        -0.1150 
     20 C2         -3.2280   53.7180   12.7620 C.ar      1 LIG         0.3192 
     21 N1         -2.7510   53.9830   11.5290 N.ar      1 LIG        -0.5168 
     22 N5         -1.3720   53.8130   11.5380 N.ar      1 LIG        -0.1894 
     23 N4         -1.0230   53.4450   12.8380 N.ar      1 LIG        -0.1894 
     24 N3         -2.2040   53.3760   13.5800 N.2       1 LIG        -0.5168 
     25 H16        -8.4880   56.4092    9.7349 H         1 LIG         0.1150 
     26 H17        -9.7018   57.9835    8.3162 H         1 LIG         0.1150 
     27 H18       -11.5594   59.3349    9.2189 H         1 LIG         0.1150 
     28 H211      -12.2398   60.5056   11.5398 H         1 LIG         0.0600 
     29 H212      -12.4186   59.4292   12.9137 H         1 LIG         0.0600 
     30 HN22      -13.6016   58.9043   10.2610 H         1 LIG         0.2900 
     31 H231      -14.9552   57.3067   11.5003 H         1 LIG         0.0600 
     32 H232      -13.2583   56.9075   11.5451 H         1 LIG         0.0600 
     33 H233      -14.0133   57.6937   12.9360 H         1 LIG         0.0600 
     34 H241      -15.7321   59.5406   11.1601 H         1 LIG         0.0600 
     35 H242      -14.9213   60.0182   12.6586 H         1 LIG         0.0600 
     36 H243      -14.6018   60.8878   11.1552 H         1 LIG         0.0600 
     37 H20       -10.8211   57.6915   13.0880 H         1 LIG         0.1150 
     38 HN12       -7.4441   55.6149   11.0519 H         1 LIG         0.3000 
     39 H11        -5.2162   55.0911   11.5593 H         1 LIG         0.1150 
     40 H7         -4.4089   52.4329   14.8310 H         1 LIG         0.1150 
     41 H8         -6.7639   52.5358   15.4835 H         1 LIG         0.1150 
     42 H9         -8.3779   53.7592   14.1449 H         1 LIG         0.1150 
@<TRIPOS>BOND
     1    1    2 2    
     2    2    3 1    
     3    2   13 am   BACKBONE|DICT|INTERRES
     4    3    4 ar   
     5    3   12 ar   
     6    4    5 ar   
     7    4   25 1    
     8    5    6 ar   
     9    5   26 1    
    10    6    7 ar   
    11    6   27 1    
    12    7    8 1    
    13    7   12 ar   
    14    8    9 1    
    15    8   28 1    
    16    8   29 1    
    17    9   10 1    
    18    9   11 1    
    19    9   30 1    
    20   10   31 1    
    21   10   32 1    
    22   10   33 1    
    23   11   34 1    
    24   11   35 1    
    25   11   36 1    
    26   12   37 1    
    27   13   14 1    
    28   13   38 1    
    29   14   15 ar   
    30   14   19 ar   
    31   15   16 ar   
    32   15   39 1    
    33   16   17 ar   
    34   16   20 1    
    35   17   18 ar   
    36   17   40 1    
    37   18   19 ar   
    38   18   41 1    
    39   19   42 1    
    40   20   21 ar   
    41   20   24 ar   
    42   21   22 ar   
    43   22   23 ar   
    44   23   24 ar   
@<TRIPOS>SUBSTRUCTURE
     1 LIG         1 GROUP             0       ****    0 ROOT    
