:4de2_ligand
                    3D
 Schrodinger Suite 2020-1.
 42 44  0  0  1  0            999 V2000
   -9.2570   55.8220   13.5960 O   0  0  0  0  0  0
   -8.8590   55.9810   12.4460 C   0  0  0  0  0  0
   -9.6340   56.8840   11.5140 C   0  0  0  0  0  0
   -9.2810   56.9990   10.1710 C   0  0  0  0  0  0
   -9.9640   57.9060    9.3610 C   0  0  0  0  0  0
  -11.0130   58.6660    9.8650 C   0  0  0  0  0  0
  -11.2930   58.6230   11.2310 C   0  0  0  0  0  0
  -12.4100   59.4660   11.8250 C   0  0  0  0  0  0
  -13.6880   58.9840   11.2650 N   0  3  0  0  0  0
  -13.9840   57.6630   11.8460 C   0  0  0  0  0  0
  -14.7930   59.9020   11.5810 C   0  0  0  0  0  0
  -10.6200   57.7150   12.0380 C   0  0  0  0  0  0
   -7.7600   55.3740   11.9800 N   0  0  0  0  0  0
   -6.9040   54.5610   12.7580 C   0  0  0  0  0  0
   -5.5580   54.5190   12.4080 C   0  0  0  0  0  0
   -4.6570   53.7620   13.1500 C   0  0  0  0  0  0
   -5.0900   53.0350   14.2540 C   0  0  0  0  0  0
   -6.4250   53.0920   14.6240 C   0  0  0  0  0  0
   -7.3410   53.8320   13.8640 C   0  0  0  0  0  0
   -3.2280   53.7180   12.7620 C   0  0  0  0  0  0
   -2.7510   53.9830   11.5290 N   0  0  0  0  0  0
   -1.3720   53.8130   11.5380 N   0  0  0  0  0  0
   -1.0230   53.4450   12.8380 N   0  0  0  0  0  0
   -2.2040   53.3760   13.5800 N   0  5  0  0  0  0
   -8.4880   56.4092    9.7349 H   0  0  0  0  0  0
   -9.7018   57.9835    8.3162 H   0  0  0  0  0  0
  -11.5594   59.3349    9.2189 H   0  0  0  0  0  0
  -12.2398   60.5056   11.5398 H   0  0  0  0  0  0
  -12.4186   59.4292   12.9137 H   0  0  0  0  0  0
  -13.6016   58.9043   10.2610 H   0  0  0  0  0  0
  -14.9552   57.3067   11.5003 H   0  0  0  0  0  0
  -13.2583   56.9075   11.5451 H   0  0  0  0  0  0
  -14.0133   57.6937   12.9360 H   0  0  0  0  0  0
  -15.7321   59.5406   11.1601 H   0  0  0  0  0  0
  -14.9213   60.0182   12.6586 H   0  0  0  0  0  0
  -14.6018   60.8878   11.1552 H   0  0  0  0  0  0
  -10.8211   57.6915   13.0880 H   0  0  0  0  0  0
   -7.4441   55.6149   11.0519 H   0  0  0  0  0  0
   -5.2162   55.0911   11.5593 H   0  0  0  0  0  0
   -4.4089   52.4329   14.8310 H   0  0  0  0  0  0
   -6.7639   52.5358   15.4835 H   0  0  0  0  0  0
   -8.3779   53.7592   14.1449 H   0  0  0  0  0  0
  1  2  2  0  0  0
  2  3  1  0  0  0
  2 13  1  0  0  0
  3  4  2  0  0  0
  3 12  1  0  0  0
  4  5  1  0  0  0
  4 25  1  0  0  0
  5  6  2  0  0  0
  5 26  1  0  0  0
  6  7  1  0  0  0
  6 27  1  0  0  0
  7  8  1  0  0  0
  7 12  2  0  0  0
  8  9  1  0  0  0
  8 28  1  0  0  0
  8 29  1  0  0  0
  9 10  1  0  0  0
  9 11  1  0  0  0
  9 30  1  0  0  0
 10 31  1  0  0  0
 10 32  1  0  0  0
 10 33  1  0  0  0
 11 34  1  0  0  0
 11 35  1  0  0  0
 11 36  1  0  0  0
 12 37  1  0  0  0
 13 14  1  0  0  0
 13 38  1  0  0  0
 14 15  2  0  0  0
 14 19  1  0  0  0
 15 16  1  0  0  0
 15 39  1  0  0  0
 16 17  2  0  0  0
 16 20  1  0  0  0
 17 18  1  0  0  0
 17 40  1  0  0  0
 18 19  2  0  0  0
 18 41  1  0  0  0
 19 42  1  0  0  0
 20 21  2  0  0  0
 20 24  1  0  0  0
 21 22  1  0  0  0
 22 23  2  0  0  0
 23 24  1  0  0  0
M  CHG  2   9   1  24  -1
M  END
> <s_pdb_PDB_ID>


> <s_pdb_PDB_CLASSIFICATION>
4DE2_PROTEIN

> <s_pdb_PDB_format_version>
3.0

> <b_ppw_prepared>
1

> <s_ppw_prepared_with_version>
2020-1

> <b_ppw_created_disulfur>
1

> <s_ppw_het_states>
eJxdkktug0AQRK8yYo2t6Q/g+CoRN7Cyy8ry3TPd7eRBWKCqmk81VTwnme7tczyq6nPr+9wCLsAVuAFvwI8/aB0oQJ2bvKGh4ma4GW6Gm+FmuDlujpsrEDfHzXFz3Hy4XWQP8o6iUlACqSzkKNhBWHPHxpEU4tuE+Co5IcTKT4myUhQCrSzPAoPF2jliTcH+C45Qg20IOViErEfBD5fmpJG9UEM1oCcB21zLYoSO6lKlnmrmLDBYrmVhQndVm9Lg75Gh9Gv3CPE5xeHxZ1+GMrdgy2D9qlZsTWYS4wTfksdW325epC/2mtvX9+NR731//QAkFadd

> <r_ff_Potential_Energy-OPLS3e>
-137614.977606029

> <r_ff_RMS_Derivative-OPLS3e>
0.0432050521649806

> <b_ff_Minimization_Converged-OPLS3e>
1

> <r_i_Potential_Energy-OPLS_2005>
-7931.23068946397

> <r_i_RMS_Derivative-OPLS_2005>
0.0432938783613297

> <r_i_Max_Derivative-OPLS_2005>
1.08612349788145

> <r_i_Stretch_Energy-OPLS_2005>
7.49152803056203

> <r_i_Bend_Energy-OPLS_2005>
157.780844456903

> <r_i_LJ-14_Energy-OPLS_2005>
341.840253783716

> <r_i_El-14_Energy-OPLS_2005>
-343.929297706626

> <r_i_Van_der_Waals_Energy-OPLS_2005>
-601.366528626205

> <r_i_Electrostatic_Energy-OPLS_2005>
-7565.11863096855

> <r_i_Dihedral_Energy-OPLS_2005>
72.0711415662276

> <r_i_target_temperature>
298

> <s_user_Residue_ID>
_:1

$$$$
