@<TRIPOS>MOLECULE
:2qbq_ligand
57   59    1
SMALL
USER_CHARGES


@<TRIPOS>ATOM
      1 S1         44.6110   14.0460    0.5060 S.3       1 LIG         0.0328 
      2 C2         44.7660   15.4390    1.5570 C.2       1 LIG        -0.1787 
      3 C3         45.6230   15.1800    2.5630 C.2       1 LIG         0.1473 
      4 C4         46.1880   13.8140    2.5260 C.2       1 LIG         0.2473 
      5 C5         45.7320   13.0860    1.4880 C.2       1 LIG        -0.1709 
      6 C6         44.0300   16.6790    1.2250 C.2       1 LIG         0.7150 
      7 O7         43.5770   16.7220    0.0620 O.co2     1 LIG        -0.8000 
      8 O8         43.8610   17.6020    2.0480 O.co2     1 LIG        -0.8000 
      9 C9         46.0430   11.6520    1.1530 C.ar      1 LIG         0.1072 
     10 C10        47.3940   11.1220    1.2180 C.ar      1 LIG        -0.1150 
     11 C11        47.6340    9.7720    0.8020 C.ar      1 LIG         0.2000 
     12 C12        46.5410    8.9630    0.2800 C.ar      1 LIG        -0.1150 
     13 C13        45.1890    9.4480    0.2030 C.ar      1 LIG        -0.1150 
     14 C14        44.9770   10.8000    0.6540 C.ar      1 LIG        -0.1150 
     15 BR1        47.4150   13.2710    3.8780 Br        1 LIG        -0.2000 
     16 O20        45.9150   16.0160    3.5510 O.3       1 LIG        -0.3000 
     17 C21        47.0570   16.8320    3.3680 C.3       1 LIG         0.1400 
     18 C22        47.4380   17.4450    4.7040 C.2       1 LIG         0.6000 
     19 O25        46.6490   17.4000    5.6750 O.co2     1 LIG        -0.8000 
     20 O26        48.5590   17.9810    4.7670 O.co2     1 LIG        -0.8000 
     21 N27        48.9250    9.3140    0.9620 N.pl3     1 LIG        -0.7800 
     22 C28        49.2920    7.9430    1.3340 C.3       1 LIG         0.1400 
     23 C30        50.8110    7.7520    1.2640 C.3       1 LIG        -0.1200 
     24 C31        51.2020    6.3090    1.6550 C.3       1 LIG         0.0000 
     25 C32        50.5160    5.8480    2.9610 C.3       1 LIG        -0.1200 
     26 C33        49.0100    6.1590    3.0880 C.3       1 LIG         0.0000 
     27 C34        48.7280    7.6260    2.7220 C.3       1 LIG        -0.1200 
     28 C42        52.7280    6.2000    1.8710 C.3       1 LIG        -0.1800 
     29 C46        50.8260    5.3220    0.5100 C.3       1 LIG        -0.1800 
     30 C50        48.7000    5.9580    4.5790 C.3       1 LIG        -0.1800 
     31 C54        48.0950    5.2090    2.2450 C.3       1 LIG        -0.1800 
     32 H10        48.2054   11.7389    1.5741 H         1 LIG         0.1150 
     33 H12        46.7376    7.9497   -0.0379 H         1 LIG         0.1150 
     34 H13        44.3817    8.8354   -0.1703 H         1 LIG         0.1150 
     35 H14        43.9747   11.1980    0.6000 H         1 LIG         0.1150 
     36 H211       46.8377   17.6254    2.6524 H         1 LIG         0.0300 
     37 H212       47.8982   16.2534    2.9816 H         1 LIG         0.0300 
     38 HN27       49.5833   10.0052    1.2958 H         1 LIG         0.3800 
     39 H28        48.8242    7.3093    0.5854 H         1 LIG         0.0600 
     40 H301       51.2900    8.4563    1.9462 H         1 LIG         0.0600 
     41 H302       51.1821    7.9892    0.2660 H         1 LIG         0.0600 
     42 H321       51.0347    6.3541    3.7772 H         1 LIG         0.0600 
     43 H322       50.6944    4.7849    3.1309 H         1 LIG         0.0600 
     44 H341       47.6537    7.8113    2.7632 H         1 LIG         0.0600 
     45 H342       49.1819    8.2939    3.4566 H         1 LIG         0.0600 
     46 H421       53.0256    5.1816    2.1236 H         1 LIG         0.0600 
     47 H422       53.2778    6.4910    0.9755 H         1 LIG         0.0600 
     48 H423       53.0614    6.8496    2.6803 H         1 LIG         0.0600 
     49 H461       50.9106    4.2825    0.8284 H         1 LIG         0.0600 
     50 H462       49.8326    5.4647    0.0999 H         1 LIG         0.0600 
     51 H463       51.5032    5.4473   -0.3355 H         1 LIG         0.0600 
     52 H501       47.6690    6.2321    4.8053 H         1 LIG         0.0600 
     53 H502       48.8363    4.9178    4.8769 H         1 LIG         0.0600 
     54 H503       49.3389    6.5649    5.2154 H         1 LIG         0.0600 
     55 H541       47.0760    5.3011    2.5973 H         1 LIG         0.0600 
     56 H542       48.0519    5.4286    1.1838 H         1 LIG         0.0600 
     57 H543       48.3851    4.1649    2.3642 H         1 LIG         0.0600 
@<TRIPOS>BOND
     1    1    2 1    
     2    1    5 1    
     3    2    3 2    
     4    2    6 1    
     5    3    4 1    
     6    3   16 1    
     7    4    5 2    
     8    4   15 1    
     9    5    9 1    
    10    6    7 2    
    11    6    8 1    
    12    9   10 ar   
    13    9   14 ar   
    14   10   11 ar   
    15   10   32 1    
    16   11   12 ar   
    17   11   21 1    
    18   12   13 ar   
    19   12   33 1    
    20   13   14 ar   
    21   13   34 1    
    22   14   35 1    
    23   16   17 1    
    24   17   18 1    
    25   17   36 1    
    26   17   37 1    
    27   18   19 2    
    28   18   20 1    
    29   21   22 1    
    30   21   38 1    
    31   22   23 1    
    32   22   27 1    
    33   22   39 1    
    34   23   24 1    
    35   23   40 1    
    36   23   41 1    
    37   24   25 1    
    38   24   28 1    
    39   24   29 1    
    40   25   26 1    
    41   25   42 1    
    42   25   43 1    
    43   26   27 1    
    44   26   30 1    
    45   26   31 1    
    46   27   44 1    
    47   27   45 1    
    48   28   46 1    
    49   28   47 1    
    50   28   48 1    
    51   29   49 1    
    52   29   50 1    
    53   29   51 1    
    54   30   52 1    
    55   30   53 1    
    56   30   54 1    
    57   31   55 1    
    58   31   56 1    
    59   31   57 1    
@<TRIPOS>SUBSTRUCTURE
     1 LIG         1 GROUP             0       ****    0 ROOT    
