@<TRIPOS>MOLECULE
:3dx1_ligand
21   21    1
SMALL
USER_CHARGES


@<TRIPOS>ATOM
      1 O3         33.6990   65.8280    7.0680 O.3       1 LIG        -0.5750 
      2 C3         32.9330   66.8210    7.7990 C.3       1 LIG         0.2050 
      3 C2         32.5520   66.2890    9.1930 C.3       1 LIG         0.2050 
      4 O2         33.4060   65.2010    9.5940 O.3       1 LIG        -0.5750 
      5 C1         31.0710   65.8390    9.0860 C.3       1 LIG         0.2500 
      6 N1         30.9530   64.4810    9.6380 N.4       1 LIG        -0.3000 
      7 C5         30.7420   65.8990    7.5950 C.3       1 LIG        -0.1200 
      8 C4         31.5570   67.1270    7.1850 C.3       1 LIG         0.2050 
      9 O4         31.6230   67.3100    5.7730 O.3       1 LIG        -0.6830 
     10 HO3        33.1196   65.3852    6.4748 H         1 LIG         0.3100 
     11 H3         33.5569   67.7074    7.8810 H         1 LIG         0.0600 
     12 H2         32.6378   67.0875    9.9296 H         1 LIG         0.0600 
     13 HO2        33.6552   65.2390   10.5002 H         1 LIG         0.3100 
     14 H1         30.4322   66.5236    9.6463 H         1 LIG         0.0600 
     15 H11        29.9950   64.1673    9.6104 H         1 LIG         0.3300 
     16 H12        31.5319   63.8479    9.0969 H         1 LIG         0.3300 
     17 H13        31.2771   64.4781   10.5970 H         1 LIG         0.3300 
     18 H51        29.6752   66.0408    7.4188 H         1 LIG         0.0600 
     19 H52        31.0421   65.0023    7.0559 H         1 LIG         0.0600 
     20 H4         31.1106   68.0044    7.6321 H         1 LIG         0.0600 
     21 HO4        32.4963   67.6125    5.5303 H         1 LIG         0.4180 
@<TRIPOS>BOND
     1    1    2 1    
     2    1   10 1    
     3    2    3 1    
     4    2    8 1    
     5    2   11 1    
     6    3    4 1    
     7    3    5 1    
     8    3   12 1    
     9    4   13 1    
    10    5    6 1    
    11    5    7 1    
    12    5   14 1    
    13    6   15 1    
    14    6   16 1    
    15    6   17 1    
    16    7    8 1    
    17    7   18 1    
    18    7   19 1    
    19    8    9 1    
    20    8   20 1    
    21    9   21 1    
@<TRIPOS>SUBSTRUCTURE
     1 LIG         1 GROUP             0       ****    0 ROOT    
