@<TRIPOS>MOLECULE
:3e5a_ligand
62   66    1
SMALL
USER_CHARGES


@<TRIPOS>ATOM
      1 N1         19.6200   30.1200   22.3550 N.4       1 LIG        -0.1000 
      2 C2         19.7830   30.5820   20.9840 C.3       1 LIG         0.1500 
      3 C3         20.9270   29.9790   20.1990 C.3       1 LIG         0.0900 
      4 N4         22.0990   29.7310   21.0000 N.pl3     1 LIG        -0.6200 
      5 C5         22.0710   29.5120   22.4450 C.3       1 LIG         0.0900 
      6 C6         20.6470   29.2200   22.9030 C.3       1 LIG         0.1500 
      7 C7         18.3720   29.3940   22.3790 C.3       1 LIG         0.0900 
      8 C8         23.1650   29.1720   20.3010 C.ar      1 LIG         0.8640 
      9 C9         23.1590   29.2090   18.9250 C.ar      1 LIG        -0.6890 
     10 C10        24.2540   28.6580   18.2810 C.ar      1 LIG         0.8640 
     11 N11        25.2720   28.1060   18.9740 N.ar      1 LIG        -0.8390 
     12 C12        25.1980   28.1080   20.3020 C.ar      1 LIG         0.9945 
     13 N13        24.1920   28.6370   20.9770 N.ar      1 LIG        -0.8390 
     14 N14        24.2240   28.7180   16.8590 N.pl3     1 LIG        -0.7800 
     15 C15        25.1960   28.4090   15.9440 C.ar      1 LIG         0.5380 
     16 C17        26.4660   27.8600   16.2610 C.ar      1 LIG        -0.3200 
     17 C18        27.1140   27.6860   15.0580 C.ar      1 LIG         0.0560 
     18 N19        26.2480   28.1310   14.0960 N.pl3     1 LIG        -0.1490 
     19 N20        25.0830   28.5620   14.6120 N.2       1 LIG        -0.5310 
     20 C21        28.4420   27.1460   14.7240 C.3       1 LIG        -0.0650 
     21 S23        26.5280   27.4320   21.2800 S.3       1 LIG        -0.3050 
     22 C24        27.2630   26.3420   20.1030 C.ar      1 LIG         0.1525 
     23 C25        28.3750   26.7520   19.4030 C.ar      1 LIG        -0.1150 
     24 C26        28.9350   25.9230   18.4640 C.ar      1 LIG        -0.1150 
     25 C27        28.3870   24.6830   18.2430 C.ar      1 LIG         0.0850 
     26 C28        27.2870   24.2590   18.9590 C.ar      1 LIG        -0.1150 
     27 C29        26.7250   25.0940   19.8910 C.ar      1 LIG        -0.1150 
     28 N30        28.9160   23.7940   17.2970 N.am      1 LIG        -0.3850 
     29 C31        30.1000   23.9530   16.6000 C.2       1 LIG         0.5000 
     30 O32        30.9990   24.8020   16.7420 O.2       1 LIG        -0.5000 
     31 C33        30.2040   22.9020   15.5680 C.3       1 LIG        -0.0600 
     32 C34        31.0310   23.2190   14.3610 C.3       1 LIG        -0.1200 
     33 C35        31.5330   22.2310   15.3760 C.3       1 LIG        -0.1200 
     34 HN1        19.5456   30.9326   22.9504 H         1 LIG         0.2900 
     35 H21        20.0009   31.6461   21.0824 H         1 LIG         0.0600 
     36 H22        18.8673   30.5524   20.3906 H         1 LIG         0.0600 
     37 H31        21.1344   30.6930   19.4023 H         1 LIG         0.0600 
     38 H32        20.5887   29.0572   19.7619 H         1 LIG         0.0600 
     39 H51        22.4381   30.4187   22.9268 H         1 LIG         0.0600 
     40 H52        22.6981   28.6935   22.7972 H         1 LIG         0.0600 
     41 H61        20.4409   28.1897   22.6025 H         1 LIG         0.0600 
     42 H62        20.5940   29.2315   23.9923 H         1 LIG         0.0600 
     43 H71        18.1753   29.0431   23.3880 H         1 LIG         0.0600 
     44 H72        17.5330   30.0379   22.1089 H         1 LIG         0.0600 
     45 H73        18.3712   28.5332   21.7063 H         1 LIG         0.0600 
     46 H9         22.3868   29.6289   18.3015 H         1 LIG         0.1970 
     47 HN14       23.3570   29.0535   16.4574 H         1 LIG         0.3800 
     48 H17        26.8862   27.6040   17.2180 H         1 LIG         0.1500 
     49 HN19       26.4311   28.1527   13.0972 H         1 LIG         0.3410 
     50 H211       28.9978   27.8293   14.0841 H         1 LIG         0.0600 
     51 H212       29.0289   26.9704   15.6243 H         1 LIG         0.0600 
     52 H213       28.3515   26.1928   14.2041 H         1 LIG         0.0600 
     53 H25        28.7921   27.7346   19.5699 H         1 LIG         0.1150 
     54 H26        29.7713   26.3241   17.9228 H         1 LIG         0.1150 
     55 H28        26.8660   23.2769   18.7965 H         1 LIG         0.1150 
     56 H29        25.8875   24.7906   20.4850 H         1 LIG         0.1150 
     57 HN30       28.3584   22.9800   17.0830 H         1 LIG         0.3000 
     58 H33        29.3309   22.2691   15.4151 H         1 LIG         0.0600 
     59 H341       31.5490   24.1753   14.3120 H         1 LIG         0.0600 
     60 H342       30.7092   22.8526   13.3957 H         1 LIG         0.0600 
     61 H351       31.5777   21.2028   15.0720 H         1 LIG         0.0600 
     62 H352       32.3593   22.5440   16.0106 H         1 LIG         0.0600 
@<TRIPOS>BOND
     1    1    2 1    
     2    1    6 1    
     3    1    7 1    
     4    1   34 1    
     5    2    3 1    
     6    2   35 1    
     7    2   36 1    
     8    3    4 1    
     9    3   37 1    
    10    3   38 1    
    11    4    5 1    
    12    4    8 1    
    13    5    6 1    
    14    5   39 1    
    15    5   40 1    
    16    6   41 1    
    17    6   42 1    
    18    7   43 1    
    19    7   44 1    
    20    7   45 1    
    21    8    9 ar   
    22    8   13 ar   
    23    9   10 ar   
    24    9   46 1    
    25   10   11 ar   
    26   10   14 1    
    27   11   12 ar   
    28   12   13 ar   
    29   12   21 1    
    30   14   15 1    
    31   14   47 1    
    32   15   16 ar   
    33   15   19 ar   
    34   16   17 ar   
    35   16   48 1    
    36   17   18 ar   
    37   17   20 1    
    38   18   19 ar   
    39   18   49 1    
    40   20   50 1    
    41   20   51 1    
    42   20   52 1    
    43   21   22 1    
    44   22   23 ar   
    45   22   27 ar   
    46   23   24 ar   
    47   23   53 1    
    48   24   25 ar   
    49   24   54 1    
    50   25   26 ar   
    51   25   28 1    
    52   26   27 ar   
    53   26   55 1    
    54   27   56 1    
    55   28   29 am   BACKBONE|DICT|INTERRES
    56   28   57 1    
    57   29   30 2    
    58   29   31 1    
    59   31   32 1    
    60   31   33 1    
    61   31   58 1    
    62   32   33 1    
    63   32   59 1    
    64   32   60 1    
    65   33   61 1    
    66   33   62 1    
@<TRIPOS>SUBSTRUCTURE
     1 LIG         1 GROUP             0       ****    0 ROOT    
