@<TRIPOS>MOLECULE
:2x00_ligand
85   89    1
SMALL
USER_CHARGES


@<TRIPOS>ATOM
      1 O6          9.0160   24.9540  -10.4650 O.2       1 LIG        -0.4300 
      2 C5          7.8360   24.7870  -10.2270 C.2       1 LIG         0.5100 
      3 O1          7.1590   25.4890   -9.1610 O.3       1 LIG        -0.3300 
      4 C2          5.7950   25.0690   -9.2170 C.3       1 LIG         0.2890 
      5 C3          5.7130   23.8380  -10.1300 C.3       1 LIG        -0.1200 
      6 C4          6.9610   23.8710  -11.0040 C.3       1 LIG        -0.0600 
      7 C7          7.6190   22.5170  -11.2090 C.3       1 LIG        -0.1800 
      8 C8          5.2970   24.8030   -7.8230 C.2       1 LIG        -0.0690 
      9 C13         4.3300   25.5800   -7.2940 C.2       1 LIG         0.0000 
     10 C14         3.6030   26.5720   -8.1770 C.3       1 LIG        -0.1800 
     11 C12         3.9290   25.5310   -5.8340 C.3       1 LIG        -0.0600 
     12 C27         4.9700   24.8090   -4.9650 C.3       1 LIG         0.3357 
     13 C10         5.3610   23.5100   -5.6710 C.3       1 LIG        -0.1200 
     14 C9          5.9540   23.6800   -7.0610 C.3       1 LIG        -0.1200 
     15 C15         3.6900   26.9470   -5.3330 C.2       1 LIG        -0.1150 
     16 C16         2.5050   27.4710   -4.9480 C.2       1 LIG         0.0000 
     17 C19         1.2120   26.6910   -4.9790 C.3       1 LIG        -0.1800 
     18 C17         2.4980   28.9090   -4.4870 C.3       1 LIG         0.2050 
     19 O20         1.6980   29.6680   -5.4060 O.3       1 LIG        -0.6830 
     20 C18         1.8910   29.0410   -3.0950 C.3       1 LIG        -0.1200 
     21 C21         2.8930   28.8780   -1.9670 C.3       1 LIG        -0.1200 
     22 C43         2.6620   27.6040   -1.1680 C.3       1 LIG         0.1700 
     23 C47         3.2590   27.6400    0.2350 C.3       1 LIG        -0.1200 
     24 C48         2.3320   26.7750    1.0730 C.3       1 LIG        -0.0600 
     25 C49         1.7070   27.6100    2.1920 C.3       1 LIG        -0.1800 
     26 O43         1.2900   27.2320   -0.9700 O.3       1 LIG        -0.4000 
     27 C37         1.2610   26.2770    0.1100 C.3       1 LIG         0.2390 
     28 C36         1.5500   24.8640   -0.3510 C.2       1 LIG        -0.0690 
     29 C38         1.1950   23.7000    0.5460 C.3       1 LIG        -0.1800 
     30 C35         2.1020   24.6670   -1.5670 C.2       1 LIG        -0.1150 
     31 C34         2.4700   23.3380   -2.2020 C.3       1 LIG        -0.1200 
     32 C33         3.0310   23.5600   -3.6150 C.3       1 LIG         0.2157 
     33 C32         4.3370   24.3520   -3.6540 C.2       1 LIG        -0.1349 
     34 N31         4.9310   24.6090   -2.5600 N.pl3     1 LIG        -0.4232 
     35 C30         6.3120   24.9990   -2.3160 C.3       1 LIG         0.2867 
     36 C46         6.5960   26.0960   -3.3310 C.3       1 LIG        -0.1200 
     37 C28         6.2110   25.7110   -4.7570 C.3       1 LIG        -0.1200 
     38 H2          5.2939   25.8905   -9.7209 H         1 LIG         0.0300 
     39 H31         4.7982   23.8453  -10.7228 H         1 LIG         0.0600 
     40 H32         5.7161   22.9104   -9.5846 H         1 LIG         0.0600 
     41 H4          6.7327   24.3398  -11.9616 H         1 LIG         0.0600 
     42 H71         6.9641   21.6953  -10.9337 H         1 LIG         0.0600 
     43 H72         7.8742   22.3807  -12.2599 H         1 LIG         0.0600 
     44 H73         8.5441   22.3868  -10.6464 H         1 LIG         0.0600 
     45 H141        2.6338   26.8363   -7.7548 H         1 LIG         0.0600 
     46 H142        4.1827   27.4882   -8.2921 H         1 LIG         0.0600 
     47 H143        3.3667   26.1626   -9.1593 H         1 LIG         0.0600 
     48 H12         3.0114   24.9597   -5.8844 H         1 LIG         0.0600 
     49 H101        4.4855   22.8754   -5.8088 H         1 LIG         0.0600 
     50 H102        6.0547   22.9265   -5.0619 H         1 LIG         0.0600 
     51 H91         7.0083   23.9349   -6.9727 H         1 LIG         0.0600 
     52 H92         5.9362   22.7208   -7.5599 H         1 LIG         0.0600 
     53 H15         4.5379   27.6097   -5.3077 H         1 LIG         0.1150 
     54 H191        0.3814   27.3582   -5.2093 H         1 LIG         0.0600 
     55 H192        1.1810   25.9139   -5.7387 H         1 LIG         0.0600 
     56 H193        1.0044   26.2419   -4.0097 H         1 LIG         0.0600 
     57 H17         3.4958   29.3416   -4.5034 H         1 LIG         0.0600 
     58 HO20        2.1002   29.6245   -6.2602 H         1 LIG         0.4180 
     59 H181        0.9943   28.4345   -2.9820 H         1 LIG         0.0600 
     60 H182        1.5095   30.0574   -3.0199 H         1 LIG         0.0600 
     61 H211        2.7651   29.7133   -1.2845 H         1 LIG         0.0600 
     62 H212        3.9272   28.9447   -2.3085 H         1 LIG         0.0600 
     63 H43         3.2717   26.8838   -1.6975 H         1 LIG         0.0300 
     64 H471        3.2468   28.6583    0.6111 H         1 LIG         0.0600 
     65 H472        4.2856   27.2771    0.2504 H         1 LIG         0.0600 
     66 H48         2.8802   25.9462    1.5227 H         1 LIG         0.0600 
     67 H491        0.9333   27.0507    2.7159 H         1 LIG         0.0600 
     68 H492        2.4561   27.9177    2.9221 H         1 LIG         0.0600 
     69 H493        1.2315   28.5104    1.8003 H         1 LIG         0.0600 
     70 H37         0.2644   26.2797    0.5525 H         1 LIG         0.0300 
     71 H381        1.6417   22.7580    0.2304 H         1 LIG         0.0600 
     72 H382        1.5240   23.9142    1.5617 H         1 LIG         0.0600 
     73 H383        0.1132   23.5705    0.5724 H         1 LIG         0.0600 
     74 H35         2.1531   25.4570   -2.2837 H         1 LIG         0.1150 
     75 H341        1.5679   22.7354   -2.2840 H         1 LIG         0.0600 
     76 H342        3.1546   22.7715   -1.5780 H         1 LIG         0.0600 
     77 H331        2.2554   24.0574   -4.1911 H         1 LIG         0.0600 
     78 H332        3.1907   22.5968   -4.0856 H         1 LIG         0.0600 
     79 HN31        4.4612   24.2824   -1.7158 H         1 LIG         0.4800 
     80 H301        6.9342   24.1155   -2.4577 H         1 LIG         0.0600 
     81 H302        6.3916   25.3521   -1.2874 H         1 LIG         0.0600 
     82 H461        7.6462   26.3871   -3.2870 H         1 LIG         0.0600 
     83 H462        6.0291   26.9849   -3.0489 H         1 LIG         0.0600 
     84 H281        6.2705   26.5552   -5.4293 H         1 LIG         0.0600 
     85 H282        7.0782   25.1339   -5.0767 H         1 LIG         0.0600 
@<TRIPOS>BOND
     1    1    2 2    
     2    2    3 1    
     3    2    6 1    
     4    3    4 1    
     5    4    5 1    
     6    4    8 1    
     7    4   38 1    
     8    5    6 1    
     9    5   39 1    
    10    5   40 1    
    11    6    7 1    
    12    6   41 1    
    13    7   42 1    
    14    7   43 1    
    15    7   44 1    
    16    8    9 2    
    17    8   14 1    
    18    9   10 1    
    19    9   11 1    
    20   10   45 1    
    21   10   46 1    
    22   10   47 1    
    23   11   12 1    
    24   11   15 1    
    25   11   48 1    
    26   12   13 1    
    27   12   33 1    
    28   12   37 1    
    29   13   14 1    
    30   13   49 1    
    31   13   50 1    
    32   14   51 1    
    33   14   52 1    
    34   15   16 2    
    35   15   53 1    
    36   16   17 1    
    37   16   18 1    
    38   17   54 1    
    39   17   55 1    
    40   17   56 1    
    41   18   19 1    
    42   18   20 1    
    43   18   57 1    
    44   19   58 1    
    45   20   21 1    
    46   20   59 1    
    47   20   60 1    
    48   21   22 1    
    49   21   61 1    
    50   21   62 1    
    51   22   23 1    
    52   22   26 1    
    53   22   63 1    
    54   23   24 1    
    55   23   64 1    
    56   23   65 1    
    57   24   25 1    
    58   24   27 1    
    59   24   66 1    
    60   25   67 1    
    61   25   68 1    
    62   25   69 1    
    63   26   27 1    
    64   27   28 1    
    65   27   70 1    
    66   28   29 1    
    67   28   30 2    
    68   29   71 1    
    69   29   72 1    
    70   29   73 1    
    71   30   31 1    
    72   30   74 1    
    73   31   32 1    
    74   31   75 1    
    75   31   76 1    
    76   32   33 1    
    77   32   77 1    
    78   32   78 1    
    79   33   34 2    
    80   34   35 1    
    81   34   79 1    
    82   35   36 1    
    83   35   80 1    
    84   35   81 1    
    85   36   37 1    
    86   36   82 1    
    87   36   83 1    
    88   37   84 1    
    89   37   85 1    
@<TRIPOS>SUBSTRUCTURE
     1 LIG         1 GROUP             0       ****    0 ROOT    
