@<TRIPOS>MOLECULE
:4mgd_ligand
30   31    1
SMALL
USER_CHARGES


@<TRIPOS>ATOM
      1 CAJ        -3.0630   -3.7320   20.0770 C.ar      1 LIG        -0.1150 
      2 CAF        -1.7890   -3.4240   19.5820 C.ar      1 LIG        -0.1150 
      3 CAN        -0.8000   -2.9620   20.4490 C.ar      1 LIG         0.1500 
      4 OAA         0.4310   -2.6520   19.9840 O.3       1 LIG        -0.5850 
      5 CAG        -1.0710   -2.7950   21.7980 C.ar      1 LIG        -0.1150 
      6 CAK        -2.3320   -3.1150   22.2870 C.ar      1 LIG        -0.1150 
      7 CAP        -3.3480   -3.5670   21.4400 C.ar      1 LIG        -0.1150 
      8 CAR        -4.6120   -3.9110   22.0120 C.3       1 LIG         0.4284 
      9 CAS        -5.5630   -2.7460   22.4240 C.3       1 LIG        -0.2944 
     10 CLD        -6.0420   -1.7470   21.0650 Cl        1 LIG         0.0120 
     11 CLE        -7.0190   -3.4940   23.1790 Cl        1 LIG         0.0120 
     12 CLC        -4.8160   -1.6890   23.6260 Cl        1 LIG         0.0120 
     13 CAQ        -5.2740   -4.9610   21.2970 C.ar      1 LIG        -0.1150 
     14 CAL        -4.8280   -6.2730   21.4750 C.ar      1 LIG        -0.1150 
     15 CAH        -5.4570   -7.3200   20.7980 C.ar      1 LIG        -0.1150 
     16 CAO        -6.5320   -7.0720   19.9410 C.ar      1 LIG         0.1500 
     17 OAB        -7.1410   -8.1060   19.2840 O.3       1 LIG        -0.5850 
     18 CAI        -6.9880   -5.7680   19.7620 C.ar      1 LIG        -0.1150 
     19 CAM        -6.3560   -4.7210   20.4340 C.ar      1 LIG        -0.1150 
     20 HAJ        -3.8112   -4.0802   19.3802 H         1 LIG         0.1150 
     21 HAF        -1.5767   -3.5489   18.5296 H         1 LIG         0.1150 
     22 HOAA        0.6904   -3.2098   19.2492 H         1 LIG         0.4350 
     23 HAG        -0.3071   -2.4346   22.4698 H         1 LIG         0.1150 
     24 HAK        -2.5026   -3.0149   23.3485 H         1 LIG         0.1150 
     25 HAR        -4.3616   -4.3740   22.9694 H         1 LIG         0.0600 
     26 HAL        -3.9961   -6.4907   22.1296 H         1 LIG         0.1150 
     27 HAH        -5.1061   -8.3316   20.9415 H         1 LIG         0.1150 
     28 HOAB       -7.7560   -7.8280   18.6160 H         1 LIG         0.4350 
     29 HAI        -7.8195   -5.5625   19.1033 H         1 LIG         0.1150 
     30 HAM        -6.7988   -3.7789   20.2043 H         1 LIG         0.1150 
@<TRIPOS>BOND
     1    1    2 ar   
     2    1    7 ar   
     3    1   20 1    
     4    2    3 ar   
     5    2   21 1    
     6    3    4 1    
     7    3    5 ar   
     8    4   22 1    
     9    5    6 ar   
    10    5   23 1    
    11    6    7 ar   
    12    6   24 1    
    13    7    8 1    
    14    8    9 1    
    15    8   13 1    
    16    8   25 1    
    17    9   10 1    
    18    9   11 1    
    19    9   12 1    
    20   13   14 ar   
    21   13   19 ar   
    22   14   15 ar   
    23   14   26 1    
    24   15   16 ar   
    25   15   27 1    
    26   16   17 1    
    27   16   18 ar   
    28   17   28 1    
    29   18   19 ar   
    30   18   29 1    
    31   19   30 1    
@<TRIPOS>SUBSTRUCTURE
     1 LIG         1 GROUP             0       ****    0 ROOT    
