@<TRIPOS>MOLECULE
:3lka_ligand
21   21    1
SMALL
USER_CHARGES


@<TRIPOS>ATOM
      1 C1          2.5270   -5.5670    7.6560 C.ar      1 LIG        -0.1150 
      2 N1          2.5500   -5.1900    4.1660 N.pl3     1 LIG        -0.7678 
      3 O1          5.4310   -6.2350    9.7660 O.3       1 LIG        -0.2850 
      4 S1          1.9130   -6.0750    5.1750 S.o2      1 LIG         0.8327 
      5 C2          3.3880   -5.6130    8.7410 C.ar      1 LIG        -0.1150 
      6 O2          1.8930   -7.4750    4.6600 O.2       1 LIG        -0.4680 
      7 C3          4.6400   -6.2080    8.6440 C.ar      1 LIG         0.0850 
      8 O3          0.5000   -5.6780    5.4410 O.2       1 LIG        -0.4680 
      9 C4          5.0640   -6.7450    7.4250 C.ar      1 LIG        -0.1150 
     10 C5          2.9190   -6.1190    6.4370 C.ar      1 LIG         0.1567 
     11 C6          6.6490   -6.9730    9.7830 C.3       1 LIG         0.1100 
     12 C7          4.1900   -6.7080    6.3270 C.ar      1 LIG        -0.1150 
     13 H1          1.5704   -5.0745    7.7577 H         1 LIG         0.1150 
     14 H11         1.8855   -4.9540    3.4300 H         1 LIG         0.3572 
     15 H12         3.3759   -5.6382    3.7658 H         1 LIG         0.3572 
     16 H2          3.1468   -5.0951    9.6469 H         1 LIG         0.1150 
     17 H4          6.0090   -7.2557    7.3183 H         1 LIG         0.1150 
     18 H61         7.0874   -6.9290   10.7795 H         1 LIG         0.0300 
     19 H62         6.4814   -8.0230    9.5400 H         1 LIG         0.0300 
     20 H63         7.3738   -6.5528    9.0844 H         1 LIG         0.0300 
     21 H7          4.4143   -7.3841    5.5466 H         1 LIG         0.1150 
@<TRIPOS>BOND
     1    1    5 ar   
     2    1   10 ar   
     3    1   13 1    
     4    2    4 1    
     5    2   14 1    
     6    2   15 1    
     7    3    7 1    
     8    3   11 1    
     9    4    6 2    
    10    4    8 2    
    11    4   10 1    
    12    5    7 ar   
    13    5   16 1    
    14    7    9 ar   
    15    9   12 ar   
    16    9   17 1    
    17   10   12 ar   
    18   11   18 1    
    19   11   19 1    
    20   11   20 1    
    21   12   21 1    
@<TRIPOS>SUBSTRUCTURE
     1 LIG         1 GROUP             0       ****    0 ROOT    
