@<TRIPOS>MOLECULE
:4cra_ligand
62   66    1
SMALL
USER_CHARGES


@<TRIPOS>ATOM
      1 C25       -26.4230  -55.5160   -9.7500 C.2       1 LIG         0.6150 
      2 O26       -25.5140  -56.2710  -10.0540 O.2       1 LIG        -0.5000 
      3 C27       -27.3000  -55.8380   -8.5920 C.ar      1 LIG        -0.1150 
      4 C28       -28.5010  -55.1250   -8.4030 C.ar      1 LIG        -0.1150 
      5 C29       -29.3550  -55.4120   -7.3660 C.ar      1 LIG        -0.1150 
      6 C30       -29.0420  -56.4380   -6.4650 C.ar      1 LIG         0.2000 
      7 C31       -27.8420  -57.1810   -6.6550 C.ar      1 LIG        -0.1150 
      8 C32       -26.9780  -56.8820   -7.7200 C.ar      1 LIG        -0.1150 
      9 C33       -27.5270  -58.2770   -5.7220 C.ar      1 LIG         0.5850 
     10 C34       -28.4290  -58.5770   -4.7280 C.ar      1 LIG        -0.7162 
     11 C35       -29.6260  -57.8210   -4.5940 C.ar      1 LIG         0.4976 
     12 O36       -30.4230  -58.0990   -3.6990 O.co2     1 LIG        -0.3739 
     13 N37       -29.8970  -56.7770   -5.4240 N.pl3     1 LIG        -1.0762 
     14 O38       -26.3600  -58.9590   -5.8740 O.2       1 LIG        -0.4700 
     15 N24       -26.6940  -54.4240  -10.5000 N.am      1 LIG        -0.5000 
     16 C21       -25.9410  -54.0630  -11.7010 C.3       1 LIG         0.1400 
     17 C22       -25.1150  -52.8280  -11.5220 C.2       1 LIG         0.5000 
     18 O23       -25.2820  -52.1280  -10.5470 O.2       1 LIG        -0.5000 
     19 C20       -27.0000  -53.6640  -12.7420 C.3       1 LIG        -0.0050 
     20 C17       -27.9180  -54.7840  -13.1970 C.ar      1 LIG        -0.1150 
     21 C16       -29.2910  -54.6450  -13.0220 C.ar      1 LIG        -0.1150 
     22 C18       -27.4020  -55.9220  -13.8290 C.ar      1 LIG        -0.1150 
     23 C15       -30.1500  -55.6580  -13.4420 C.ar      1 LIG        -0.1150 
     24 C19       -28.2570  -56.9380  -14.2570 C.ar      1 LIG        -0.1150 
     25 C14       -29.6310  -56.7960  -14.0600 C.ar      1 LIG        -0.1150 
     26 C1        -19.7300  -50.7950  -11.7610 C.ar      1 LIG         0.7341 
     27 C2        -19.2730  -52.1350  -11.6920 C.ar      1 LIG        -0.4407 
     28 C3        -20.1700  -53.1590  -11.8550 C.ar      1 LIG        -0.0433 
     29 C4        -21.5230  -52.8800  -12.0960 C.ar      1 LIG        -0.2060 
     30 C5        -21.9830  -51.5860  -12.1840 C.ar      1 LIG        -0.1295 
     31 C6        -21.1030  -50.5060  -12.0100 C.ar      1 LIG        -0.1736 
     32 N7        -18.8830  -49.7830  -11.6020 N.ar      1 LIG        -0.7311 
     33 C8        -19.2740  -48.5250  -11.6580 C.ar      1 LIG         0.6855 
     34 C9        -20.6130  -48.1520  -11.9100 C.ar      1 LIG        -0.4849 
     35 N10       -18.2930  -47.5620  -11.4670 N.pl3     1 LIG        -0.9200 
     36 C11       -21.5440  -49.1460  -12.0820 C.ar      1 LIG         0.0486 
     37 C12       -23.4340  -51.2820  -12.4190 C.3       1 LIG         0.1950 
     38 N13       -24.2460  -52.4930  -12.5020 N.am      1 LIG        -0.5000 
     39 H28       -28.7953  -54.3472   -9.0864 H         1 LIG         0.1150 
     40 H29       -30.2578  -54.8386   -7.2514 H         1 LIG         0.1150 
     41 H32       -26.0696  -57.4491   -7.8641 H         1 LIG         0.1150 
     42 H34       -28.2041  -59.3982   -4.0630 H         1 LIG         0.1150 
     43 HN37      -30.7471  -56.2278   -5.3620 H         1 LIG         0.3537 
     44 HN24      -27.4392  -53.8021  -10.2140 H         1 LIG         0.3000 
     45 H21       -25.3140  -54.8724  -12.0785 H         1 LIG         0.0600 
     46 H201      -26.5150  -53.3205  -13.6559 H         1 LIG         0.0600 
     47 H202      -27.6101  -52.8364  -12.3798 H         1 LIG         0.0600 
     48 H16       -29.7009  -53.7620  -12.5528 H         1 LIG         0.1150 
     49 H18       -26.3379  -56.0214  -13.9846 H         1 LIG         0.1150 
     50 H15       -31.2160  -55.5552  -13.3075 H         1 LIG         0.1150 
     51 H19       -27.8616  -57.8193  -14.7401 H         1 LIG         0.1150 
     52 H14       -30.3019  -57.5740  -14.3937 H         1 LIG         0.1150 
     53 H2        -18.2305  -52.3473  -11.5057 H         1 LIG         0.2022 
     54 H3        -19.8337  -54.1838  -11.7962 H         1 LIG         0.1388 
     55 H4        -22.1767  -53.7304  -12.2132 H         1 LIG         0.1554 
     56 H9        -20.9033  -47.1127  -11.9558 H         1 LIG         0.1970 
     57 H101      -18.5116  -46.5764  -11.4559 H         1 LIG         0.3600 
     58 H102      -17.3426  -47.8251  -11.2509 H         1 LIG         0.3600 
     59 H11       -22.5686  -48.8677  -12.2752 H         1 LIG         0.1325 
     60 H121      -23.5506  -50.7307  -13.3520 H         1 LIG         0.0600 
     61 H122      -23.7431  -50.6309  -11.6041 H         1 LIG         0.0600 
     62 HN13      -24.1510  -53.0815  -13.3169 H         1 LIG         0.3000 
@<TRIPOS>BOND
     1    1    2 2    
     2    1    3 1    
     3    1   15 am   BACKBONE|DICT|INTERRES
     4    3    4 ar   
     5    3    8 ar   
     6    4    5 ar   
     7    4   39 1    
     8    5    6 ar   
     9    5   40 1    
    10    6    7 ar   
    11    6   13 ar   
    12    7    8 ar   
    13    7    9 ar   
    14    8   41 1    
    15    9   10 ar   
    16    9   14 2    
    17   10   11 ar   
    18   10   42 1    
    19   11   12 1    
    20   11   13 ar   
    21   13   43 1    
    22   15   16 1    
    23   15   44 1    
    24   16   17 1    
    25   16   19 1    
    26   16   45 1    
    27   17   18 2    
    28   17   38 am   BACKBONE|DICT|INTERRES
    29   19   20 1    
    30   19   46 1    
    31   19   47 1    
    32   20   21 ar   
    33   20   22 ar   
    34   21   23 ar   
    35   21   48 1    
    36   22   24 ar   
    37   22   49 1    
    38   23   25 ar   
    39   23   50 1    
    40   24   25 ar   
    41   24   51 1    
    42   25   52 1    
    43   26   27 ar   
    44   26   31 ar   
    45   26   32 ar   
    46   27   28 ar   
    47   27   53 1    
    48   28   29 ar   
    49   28   54 1    
    50   29   30 ar   
    51   29   55 1    
    52   30   31 ar   
    53   30   37 1    
    54   31   36 ar   
    55   32   33 ar   
    56   33   34 ar   
    57   33   35 1    
    58   34   36 ar   
    59   34   56 1    
    60   35   57 1    
    61   35   58 1    
    62   36   59 1    
    63   37   38 1    
    64   37   60 1    
    65   37   61 1    
    66   38   62 1    
@<TRIPOS>SUBSTRUCTURE
     1 LIG         1 GROUP             0       ****    0 ROOT    
