:4cra_ligand
                    3D
 Schrodinger Suite 2020-1.
 62 66  0  0  1  0            999 V2000
  -26.4230  -55.5160   -9.7500 C   0  0  0  0  0  0
  -25.5140  -56.2710  -10.0540 O   0  0  0  0  0  0
  -27.3000  -55.8380   -8.5920 C   0  0  0  0  0  0
  -28.5010  -55.1250   -8.4030 C   0  0  0  0  0  0
  -29.3550  -55.4120   -7.3660 C   0  0  0  0  0  0
  -29.0420  -56.4380   -6.4650 C   0  0  0  0  0  0
  -27.8420  -57.1810   -6.6550 C   0  0  0  0  0  0
  -26.9780  -56.8820   -7.7200 C   0  0  0  0  0  0
  -27.5270  -58.2770   -5.7220 C   0  0  0  0  0  0
  -28.4290  -58.5770   -4.7280 C   0  0  0  0  0  0
  -29.6260  -57.8210   -4.5940 C   0  0  0  0  0  0
  -30.4230  -58.0990   -3.6990 O   0  5  0  0  0  0
  -29.8970  -56.7770   -5.4240 N   0  0  0  0  0  0
  -26.3600  -58.9590   -5.8740 O   0  0  0  0  0  0
  -26.6940  -54.4240  -10.5000 N   0  0  0  0  0  0
  -25.9410  -54.0630  -11.7010 C   0  0  2  0  0  0
  -25.1150  -52.8280  -11.5220 C   0  0  0  0  0  0
  -25.2820  -52.1280  -10.5470 O   0  0  0  0  0  0
  -27.0000  -53.6640  -12.7420 C   0  0  0  0  0  0
  -27.9180  -54.7840  -13.1970 C   0  0  0  0  0  0
  -29.2910  -54.6450  -13.0220 C   0  0  0  0  0  0
  -27.4020  -55.9220  -13.8290 C   0  0  0  0  0  0
  -30.1500  -55.6580  -13.4420 C   0  0  0  0  0  0
  -28.2570  -56.9380  -14.2570 C   0  0  0  0  0  0
  -29.6310  -56.7960  -14.0600 C   0  0  0  0  0  0
  -19.7300  -50.7950  -11.7610 C   0  0  0  0  0  0
  -19.2730  -52.1350  -11.6920 C   0  0  0  0  0  0
  -20.1700  -53.1590  -11.8550 C   0  0  0  0  0  0
  -21.5230  -52.8800  -12.0960 C   0  0  0  0  0  0
  -21.9830  -51.5860  -12.1840 C   0  0  0  0  0  0
  -21.1030  -50.5060  -12.0100 C   0  0  0  0  0  0
  -18.8830  -49.7830  -11.6020 N   0  0  0  0  0  0
  -19.2740  -48.5250  -11.6580 C   0  0  0  0  0  0
  -20.6130  -48.1520  -11.9100 C   0  0  0  0  0  0
  -18.2930  -47.5620  -11.4670 N   0  0  0  0  0  0
  -21.5440  -49.1460  -12.0820 C   0  0  0  0  0  0
  -23.4340  -51.2820  -12.4190 C   0  0  0  0  0  0
  -24.2460  -52.4930  -12.5020 N   0  0  0  0  0  0
  -28.7953  -54.3472   -9.0864 H   0  0  0  0  0  0
  -30.2578  -54.8386   -7.2514 H   0  0  0  0  0  0
  -26.0696  -57.4491   -7.8641 H   0  0  0  0  0  0
  -28.2041  -59.3982   -4.0630 H   0  0  0  0  0  0
  -30.7471  -56.2278   -5.3620 H   0  0  0  0  0  0
  -27.4392  -53.8021  -10.2140 H   0  0  0  0  0  0
  -25.3140  -54.8724  -12.0785 H   0  0  0  0  0  0
  -26.5150  -53.3205  -13.6559 H   0  0  0  0  0  0
  -27.6101  -52.8364  -12.3798 H   0  0  0  0  0  0
  -29.7009  -53.7620  -12.5528 H   0  0  0  0  0  0
  -26.3379  -56.0214  -13.9846 H   0  0  0  0  0  0
  -31.2160  -55.5552  -13.3075 H   0  0  0  0  0  0
  -27.8616  -57.8193  -14.7401 H   0  0  0  0  0  0
  -30.3019  -57.5740  -14.3937 H   0  0  0  0  0  0
  -18.2305  -52.3473  -11.5057 H   0  0  0  0  0  0
  -19.8337  -54.1838  -11.7962 H   0  0  0  0  0  0
  -22.1767  -53.7304  -12.2132 H   0  0  0  0  0  0
  -20.9033  -47.1127  -11.9558 H   0  0  0  0  0  0
  -18.5116  -46.5764  -11.4559 H   0  0  0  0  0  0
  -17.3426  -47.8251  -11.2509 H   0  0  0  0  0  0
  -22.5686  -48.8677  -12.2752 H   0  0  0  0  0  0
  -23.5506  -50.7307  -13.3520 H   0  0  0  0  0  0
  -23.7431  -50.6309  -11.6041 H   0  0  0  0  0  0
  -24.1510  -53.0815  -13.3169 H   0  0  0  0  0  0
  1  2  2  0  0  0
  1  3  1  0  0  0
  1 15  1  0  0  0
  3  4  2  0  0  0
  3  8  1  0  0  0
  4  5  1  0  0  0
  4 39  1  0  0  0
  5  6  2  0  0  0
  5 40  1  0  0  0
  6  7  1  0  0  0
  6 13  1  0  0  0
  7  8  2  0  0  0
  7  9  1  0  0  0
  8 41  1  0  0  0
  9 10  1  0  0  0
  9 14  2  0  0  0
 10 11  2  0  0  0
 10 42  1  0  0  0
 11 12  1  0  0  0
 11 13  1  0  0  0
 13 43  1  0  0  0
 15 16  1  0  0  0
 15 44  1  0  0  0
 16 17  1  0  0  0
 16 19  1  0  0  0
 16 45  1  0  0  0
 17 18  2  0  0  0
 17 38  1  0  0  0
 19 20  1  0  0  0
 19 46  1  0  0  0
 19 47  1  0  0  0
 20 21  2  0  0  0
 20 22  1  0  0  0
 21 23  1  0  0  0
 21 48  1  0  0  0
 22 24  2  0  0  0
 22 49  1  0  0  0
 23 25  2  0  0  0
 23 50  1  0  0  0
 24 25  1  0  0  0
 24 51  1  0  0  0
 25 52  1  0  0  0
 26 27  2  0  0  0
 26 31  1  0  0  0
 26 32  1  0  0  0
 27 28  1  0  0  0
 27 53  1  0  0  0
 28 29  2  0  0  0
 28 54  1  0  0  0
 29 30  1  0  0  0
 29 55  1  0  0  0
 30 31  2  0  0  0
 30 37  1  0  0  0
 31 36  1  0  0  0
 32 33  2  0  0  0
 33 34  1  0  0  0
 33 35  1  0  0  0
 34 36  2  0  0  0
 34 56  1  0  0  0
 35 57  1  0  0  0
 35 58  1  0  0  0
 36 59  1  0  0  0
 37 38  1  0  0  0
 37 60  1  0  0  0
 37 61  1  0  0  0
 38 62  1  0  0  0
M  CHG  1  12  -1
M  END
> <s_pdb_PDB_ID>


> <s_pdb_PDB_CLASSIFICATION>
4CRA_PROTEIN

> <s_pdb_PDB_format_version>
3.0

> <b_ppw_prepared>
1

> <s_ppw_prepared_with_version>
2020-1

> <b_ppw_created_disulfur>
1

> <s_ppw_het_states>
eJxdlE2OwjAMha9SdQ2oz0l/wlVG3ADNblaIu0/i1HwtLNDLFyfPjq2+Ro334af+bCrLZZgel6HJFbkhS0hNE1JIQyZkRs7IBVndrtr1BsZO2Ak7YSfshJ2wE3ZakbgJN8PNcDPcDDfDzXAz3Aw3w81wS7gl3BJuyd2a3pvU+2N7UzqoV+sA/MUCbB5RONKAdygiioPPEZe9s0aTe391AhvA4lI7gUxEdjB/g8KR2cEC8FrafOgEsJVn2oYigCcm+wbkIU9MZNpBSkR4YiJTeWIisR2QmPqrHxJbHVCc/NXbbAUoAcSw9TmzE1i+I7D1YJ/HAMlB5g6vxajF5rjUjiDxYr7nwxjAa2njG0d6LYUIB+lQS4k7jIGOR65kumnZ6qHX2K6v36DrdKunx5xldVW315L6Op/X6bNv78vw+/d89v/H4/0P32b65A==

> <r_ff_Potential_Energy-OPLS3e>
-83780.9376403429

> <r_ff_RMS_Derivative-OPLS3e>
0.0464588898714635

> <b_ff_Minimization_Converged-OPLS3e>
1

> <r_i_Potential_Energy-OPLS_2005>
-7057.89528012295

> <r_i_RMS_Derivative-OPLS_2005>
0.0402930381431644

> <r_i_Max_Derivative-OPLS_2005>
1.16344218054979

> <r_i_Stretch_Energy-OPLS_2005>
6.61263279725792

> <r_i_Bend_Energy-OPLS_2005>
154.429055406409

> <r_i_LJ-14_Energy-OPLS_2005>
335.851078594758

> <r_i_El-14_Energy-OPLS_2005>
-270.988119592355

> <r_i_Van_der_Waals_Energy-OPLS_2005>
-504.21040096844

> <r_i_Electrostatic_Energy-OPLS_2005>
-6874.85268261498

> <r_i_Dihedral_Energy-OPLS_2005>
95.2631562543975

> <r_i_target_temperature>
298

> <s_user_Residue_ID>
_:1

$$$$
