@<TRIPOS>MOLECULE
:3oe5_ligand
50   52    1
SMALL
USER_CHARGES


@<TRIPOS>ATOM
      1 C1         20.4640  -30.3290   13.3220 C.3       1 LIG         0.2050 
      2 C2         19.3870  -31.4330   13.3300 C.3       1 LIG         0.2050 
      3 C3         18.0680  -30.6670   13.2010 C.3       1 LIG         0.3189 
      4 O4         18.4230  -29.4060   12.6160 O.3       1 LIG        -0.4000 
      5 C5         19.7840  -29.4160   12.2560 C.3       1 LIG         0.2390 
      6 C6         19.9180  -30.0030   10.9160 C.2       1 LIG        -0.1840 
      7 S7         16.9500  -31.6140   12.1580 S.3       1 LIG        -0.3014 
      8 O8         20.4770  -29.6200   14.5590 O.3       1 LIG        -0.6830 
      9 O9         19.3800  -32.2120   14.5330 O.3       1 LIG        -0.6830 
     10 C10        20.6800  -29.4420   10.0190 C.2       1 LIG        -0.1150 
     11 C11        15.4090  -31.1400   12.5970 C.ar      1 LIG         0.4445 
     12 C12        20.8460  -29.9740    8.6340 C.3       1 LIG         0.0800 
     13 N13        21.7980  -29.2190    7.8600 N.am      1 LIG        -0.5000 
     14 C14        22.6140  -29.7000    6.9040 C.2       1 LIG         0.6150 
     15 C15        23.6680  -28.8490    6.2960 C.ar      1 LIG        -0.1150 
     16 C16        23.6930  -27.4400    6.5000 C.ar      1 LIG         0.1500 
     17 C17        24.7670  -26.7260    5.9020 C.ar      1 LIG         0.1500 
     18 C18        25.7430  -27.2900    5.1300 C.ar      1 LIG        -0.1150 
     19 C19        25.6930  -28.6920    4.9650 C.ar      1 LIG         0.0900 
     20 C20        24.6620  -29.4660    5.5410 C.ar      1 LIG        -0.1150 
     21 N21        26.6930  -29.3600    4.1620 N.pl3     1 LIG         0.6500 
     22 O22        22.7820  -26.7460    7.1910 O.3       1 LIG        -0.4600 
     23 O23        24.8120  -25.3570    6.0880 O.3       1 LIG        -0.4600 
     24 O24        22.5040  -30.9010    6.5190 O.2       1 LIG        -0.5000 
     25 O25        27.4960  -28.7420    3.5140 O.co2     1 LIG        -0.3700 
     26 O26        26.6580  -30.5820    4.1530 O.co2     1 LIG        -0.3700 
     27 C27        14.2350  -31.8840   12.1590 C.ar      1 LIG        -0.4470 
     28 C28        12.9550  -31.4860   12.5640 C.ar      1 LIG         0.4730 
     29 N29        12.6990  -30.3950   13.3610 N.ar      1 LIG        -0.6780 
     30 C30        13.8140  -29.6770   13.7730 C.ar      1 LIG         0.4730 
     31 C31        15.1190  -30.0170   13.4290 C.ar      1 LIG        -0.4470 
     32 H1         21.4624  -30.6742   13.0508 H         1 LIG         0.0600 
     33 H2         19.5481  -32.1202   12.4986 H         1 LIG         0.0600 
     34 H3         17.6346  -30.5028   14.1826 H         1 LIG         0.0300 
     35 H5         20.1845  -28.4006   12.2808 H         1 LIG         0.0300 
     36 H6         19.3717  -30.9013   10.6710 H         1 LIG         0.1150 
     37 HO8        19.5899  -29.4090   14.8329 H         1 LIG         0.4180 
     38 HO9        19.1364  -31.6476   15.2604 H         1 LIG         0.4180 
     39 H10        21.2280  -28.5414   10.2593 H         1 LIG         0.1150 
     40 H121       19.8975  -30.0162    8.1130 H         1 LIG         0.0600 
     41 H122       21.1809  -31.0086    8.7275 H         1 LIG         0.0600 
     42 HN13       21.8946  -28.2398    8.0922 H         1 LIG         0.3000 
     43 H18        26.5484  -26.7051    4.7194 H         1 LIG         0.1150 
     44 H20        24.6390  -30.5364    5.3961 H         1 LIG         0.1150 
     45 HO22       22.9412  -25.8224    7.2917 H         1 LIG         0.3100 
     46 HO23       25.3678  -24.9718    5.4305 H         1 LIG         0.3100 
     47 H27        14.3410  -32.7476   11.5459 H         1 LIG         0.1550 
     48 H28        12.0893  -32.0478   12.2455 H         1 LIG         0.0120 
     49 H30        13.6167  -28.8164   14.3927 H         1 LIG         0.0120 
     50 H31        15.8993  -29.3696   13.7938 H         1 LIG         0.1550 
@<TRIPOS>BOND
     1    1    2 1    
     2    1    5 1    
     3    1    8 1    
     4    1   32 1    
     5    2    3 1    
     6    2    9 1    
     7    2   33 1    
     8    3    4 1    
     9    3    7 1    
    10    3   34 1    
    11    4    5 1    
    12    5    6 1    
    13    5   35 1    
    14    6   10 2    
    15    6   36 1    
    16    7   11 1    
    17    8   37 1    
    18    9   38 1    
    19   10   12 1    
    20   10   39 1    
    21   11   27 ar   
    22   11   31 ar   
    23   12   13 1    
    24   12   40 1    
    25   12   41 1    
    26   13   14 am   BACKBONE|DICT|INTERRES
    27   13   42 1    
    28   14   15 1    
    29   14   24 2    
    30   15   16 ar   
    31   15   20 ar   
    32   16   17 ar   
    33   16   22 1    
    34   17   18 ar   
    35   17   23 1    
    36   18   19 ar   
    37   18   43 1    
    38   19   20 ar   
    39   19   21 1    
    40   20   44 1    
    41   21   25 1    
    42   21   26 2    
    43   22   45 1    
    44   23   46 1    
    45   27   28 ar   
    46   27   47 1    
    47   28   29 ar   
    48   28   48 1    
    49   29   30 ar   
    50   30   31 ar   
    51   30   49 1    
    52   31   50 1    
@<TRIPOS>SUBSTRUCTURE
     1 LIG         1 GROUP             0       ****    0 ROOT    
