:3oe5_ligand
                    3D
 Schrodinger Suite 2020-1.
 50 52  0  0  1  0            999 V2000
   20.4640  -30.3290   13.3220 C   0  0  1  0  0  0
   19.3870  -31.4330   13.3300 C   0  0  2  0  0  0
   18.0680  -30.6670   13.2010 C   0  0  1  0  0  0
   18.4230  -29.4060   12.6160 O   0  0  0  0  0  0
   19.7840  -29.4160   12.2560 C   0  0  2  0  0  0
   19.9180  -30.0030   10.9160 C   0  0  0  0  0  0
   16.9500  -31.6140   12.1580 S   0  0  0  0  0  0
   20.4770  -29.6200   14.5590 O   0  0  0  0  0  0
   19.3800  -32.2120   14.5330 O   0  0  0  0  0  0
   20.6800  -29.4420   10.0190 C   0  0  0  0  0  0
   15.4090  -31.1400   12.5970 C   0  0  0  0  0  0
   20.8460  -29.9740    8.6340 C   0  0  0  0  0  0
   21.7980  -29.2190    7.8600 N   0  0  0  0  0  0
   22.6140  -29.7000    6.9040 C   0  0  0  0  0  0
   23.6680  -28.8490    6.2960 C   0  0  0  0  0  0
   23.6930  -27.4400    6.5000 C   0  0  0  0  0  0
   24.7670  -26.7260    5.9020 C   0  0  0  0  0  0
   25.7430  -27.2900    5.1300 C   0  0  0  0  0  0
   25.6930  -28.6920    4.9650 C   0  0  0  0  0  0
   24.6620  -29.4660    5.5410 C   0  0  0  0  0  0
   26.6930  -29.3600    4.1620 N   0  3  0  0  0  0
   22.7820  -26.7460    7.1910 O   0  0  0  0  0  0
   24.8120  -25.3570    6.0880 O   0  0  0  0  0  0
   22.5040  -30.9010    6.5190 O   0  0  0  0  0  0
   27.4960  -28.7420    3.5140 O   0  5  0  0  0  0
   26.6580  -30.5820    4.1530 O   0  0  0  0  0  0
   14.2350  -31.8840   12.1590 C   0  0  0  0  0  0
   12.9550  -31.4860   12.5640 C   0  0  0  0  0  0
   12.6990  -30.3950   13.3610 N   0  0  0  0  0  0
   13.8140  -29.6770   13.7730 C   0  0  0  0  0  0
   15.1190  -30.0170   13.4290 C   0  0  0  0  0  0
   21.4624  -30.6742   13.0508 H   0  0  0  0  0  0
   19.5481  -32.1202   12.4986 H   0  0  0  0  0  0
   17.6346  -30.5028   14.1826 H   0  0  0  0  0  0
   20.1845  -28.4006   12.2808 H   0  0  0  0  0  0
   19.3717  -30.9013   10.6710 H   0  0  0  0  0  0
   19.5899  -29.4090   14.8329 H   0  0  0  0  0  0
   19.1364  -31.6476   15.2604 H   0  0  0  0  0  0
   21.2280  -28.5414   10.2593 H   0  0  0  0  0  0
   19.8975  -30.0162    8.1130 H   0  0  0  0  0  0
   21.1809  -31.0086    8.7275 H   0  0  0  0  0  0
   21.8946  -28.2398    8.0922 H   0  0  0  0  0  0
   26.5484  -26.7051    4.7194 H   0  0  0  0  0  0
   24.6390  -30.5364    5.3961 H   0  0  0  0  0  0
   22.9412  -25.8224    7.2917 H   0  0  0  0  0  0
   25.3678  -24.9718    5.4305 H   0  0  0  0  0  0
   14.3410  -32.7476   11.5459 H   0  0  0  0  0  0
   12.0893  -32.0478   12.2455 H   0  0  0  0  0  0
   13.6167  -28.8164   14.3927 H   0  0  0  0  0  0
   15.8993  -29.3696   13.7938 H   0  0  0  0  0  0
  1  2  1  0  0  0
  1  5  1  0  0  0
  1  8  1  0  0  0
  1 32  1  0  0  0
  2  3  1  0  0  0
  2  9  1  0  0  0
  2 33  1  0  0  0
  3  4  1  0  0  0
  3  7  1  0  0  0
  3 34  1  0  0  0
  4  5  1  0  0  0
  5  6  1  0  0  0
  5 35  1  0  0  0
  6 10  2  0  0  0
  6 36  1  0  0  0
  7 11  1  0  0  0
  8 37  1  0  0  0
  9 38  1  0  0  0
 10 12  1  0  0  0
 10 39  1  0  0  0
 11 27  2  0  0  0
 11 31  1  0  0  0
 12 13  1  0  0  0
 12 40  1  0  0  0
 12 41  1  0  0  0
 13 14  1  0  0  0
 13 42  1  0  0  0
 14 15  1  0  0  0
 14 24  2  0  0  0
 15 16  2  0  0  0
 15 20  1  0  0  0
 16 17  1  0  0  0
 16 22  1  0  0  0
 17 18  2  0  0  0
 17 23  1  0  0  0
 18 19  1  0  0  0
 18 43  1  0  0  0
 19 20  2  0  0  0
 19 21  1  0  0  0
 20 44  1  0  0  0
 21 25  1  0  0  0
 21 26  2  0  0  0
 22 45  1  0  0  0
 23 46  1  0  0  0
 27 28  1  0  0  0
 27 47  1  0  0  0
 28 29  2  0  0  0
 28 48  1  0  0  0
 29 30  1  0  0  0
 30 31  2  0  0  0
 30 49  1  0  0  0
 31 50  1  0  0  0
M  CHG  2  21   1  25  -1
M  END
> <s_pdb_PDB_ID>


> <s_pdb_PDB_CLASSIFICATION>
3OE5_PROTEIN

> <s_pdb_PDB_format_version>
3.0

> <b_ppw_prepared>
1

> <s_ppw_prepared_with_version>
2020-1

> <b_ppw_created_disulfur>
1

> <r_ff_Potential_Energy-OPLS3e>
-41412.1988827901

> <r_ff_RMS_Derivative-OPLS3e>
0.04539765425204

> <b_ff_Minimization_Converged-OPLS3e>
1

> <r_i_Potential_Energy-OPLS_2005>
-5747.77008486472

> <r_i_RMS_Derivative-OPLS_2005>
0.0477208363110164

> <r_i_Max_Derivative-OPLS_2005>
1.68120921867466

> <r_i_Stretch_Energy-OPLS_2005>
5.25241237465341

> <r_i_Bend_Energy-OPLS_2005>
143.510690431588

> <r_i_LJ-14_Energy-OPLS_2005>
317.312002358327

> <r_i_El-14_Energy-OPLS_2005>
-229.738702243258

> <r_i_Van_der_Waals_Energy-OPLS_2005>
-481.940857930269

> <r_i_Electrostatic_Energy-OPLS_2005>
-5583.28437410395

> <r_i_Dihedral_Energy-OPLS_2005>
81.1187442481925

> <r_i_target_temperature>
298

> <s_user_Residue_ID>
_:1

$$$$
