@<TRIPOS>MOLECULE
:3k5v_ligand
40   42    1
SMALL
USER_CHARGES


@<TRIPOS>ATOM
      1 F1         16.7690   38.2120   48.9130 F         1 LIG        -0.1500 
      2 C2         17.3270   38.7500   50.0250 C.3       1 LIG         0.6000 
      3 F3         16.5120   38.6120   51.1080 F         1 LIG        -0.1500 
      4 F4         18.5320   38.1730   50.2750 F         1 LIG        -0.1500 
      5 O5         17.5150   40.1250   49.7490 O.3       1 LIG        -0.2500 
      6 C6         18.0890   40.9540   50.7170 C.ar      1 LIG         0.1000 
      7 C7         19.4740   41.2320   50.7140 C.ar      1 LIG        -0.1150 
      8 C9         20.0180   42.0800   51.6830 C.ar      1 LIG        -0.1150 
      9 C11        19.2070   42.6490   52.6690 C.ar      1 LIG         0.2000 
     10 C12        17.8240   42.3790   52.6550 C.ar      1 LIG        -0.1150 
     11 C14        17.2730   41.5340   51.6840 C.ar      1 LIG        -0.1150 
     12 N16        19.6440   43.4880   53.6350 N.pl3     1 LIG        -0.7800 
     13 C18        20.9160   43.8190   53.9800 C.ar      1 LIG         0.8640 
     14 N19        22.0110   43.3680   53.3070 N.ar      1 LIG        -0.8390 
     15 C20        23.2650   43.7190   53.6850 C.ar      1 LIG         0.8740 
     16 N22        23.4470   44.5390   54.7480 N.ar      1 LIG        -0.8390 
     17 C23        22.3930   45.0220   55.4550 C.ar      1 LIG         0.6640 
     18 C24        21.0870   44.6670   55.0730 C.ar      1 LIG        -0.6890 
     19 C26        22.6470   45.9230   56.6020 C.ar      1 LIG         0.0000 
     20 C27        23.8620   46.6160   56.6180 C.ar      1 LIG        -0.1150 
     21 C29        24.1870   47.4950   57.6510 C.ar      1 LIG        -0.1150 
     22 C30        23.2770   47.6830   58.7090 C.ar      1 LIG        -0.1150 
     23 C32        22.0520   46.9900   58.7050 C.ar      1 LIG        -0.1150 
     24 C34        21.7330   46.1090   57.6520 C.ar      1 LIG        -0.1150 
     25 C36        25.5380   48.1710   57.5250 C.2       1 LIG         0.6150 
     26 O37        25.6350   49.0640   56.6990 O.2       1 LIG        -0.5000 
     27 N38        26.6090   47.7820   58.2540 N.am      1 LIG        -0.7600 
     28 H7         20.1115   40.7950   49.9605 H         1 LIG         0.1150 
     29 H9         21.0620   42.2654   51.5649 H         1 LIG         0.1150 
     30 H12        17.1665   42.8014   53.3961 H         1 LIG         0.1150 
     31 H14        16.2137   41.3373   51.7038 H         1 LIG         0.1150 
     32 HN16       18.9227   43.8490   54.2476 H         1 LIG         0.3800 
     33 H20        24.1178   43.3482   53.1367 H         1 LIG        -0.0320 
     34 H24        20.2277   45.0472   55.6043 H         1 LIG         0.1970 
     35 H27        24.5690   46.4922   55.8097 H         1 LIG         0.1150 
     36 H30        23.5100   48.3610   59.5173 H         1 LIG         0.1150 
     37 H32        21.3518   47.1332   59.5148 H         1 LIG         0.1150 
     38 H34        20.7931   45.5792   57.6752 H         1 LIG         0.1150 
     39 H381       27.4940   48.2497   58.1249 H         1 LIG         0.3800 
     40 H382       26.5172   47.0315   58.9224 H         1 LIG         0.3800 
@<TRIPOS>BOND
     1    1    2 1    
     2    2    3 1    
     3    2    4 1    
     4    2    5 1    
     5    5    6 1    
     6    6    7 ar   
     7    6   11 ar   
     8    7    8 ar   
     9    7   28 1    
    10    8    9 ar   
    11    8   29 1    
    12    9   10 ar   
    13    9   12 1    
    14   10   11 ar   
    15   10   30 1    
    16   11   31 1    
    17   12   13 1    
    18   12   32 1    
    19   13   14 ar   
    20   13   18 ar   
    21   14   15 ar   
    22   15   16 ar   
    23   15   33 1    
    24   16   17 ar   
    25   17   18 ar   
    26   17   19 1    
    27   18   34 1    
    28   19   20 ar   
    29   19   24 ar   
    30   20   21 ar   
    31   20   35 1    
    32   21   22 ar   
    33   21   25 1    
    34   22   23 ar   
    35   22   36 1    
    36   23   24 ar   
    37   23   37 1    
    38   24   38 1    
    39   25   26 2    
    40   25   27 am   BACKBONE|DICT|INTERRES
    41   27   39 1    
    42   27   40 1    
@<TRIPOS>SUBSTRUCTURE
     1 LIG         1 GROUP             0       ****    0 ROOT    
