@<TRIPOS>MOLECULE
:3uev_ligand
43   42    1
SMALL
USER_CHARGES


@<TRIPOS>ATOM
      1 C1         -0.9490    3.8100   19.6390 C.2       1 LIG         0.7000 
      2 O1         -1.0150    3.6800   18.3990 O.co2     1 LIG        -0.8000 
      3 O2         -0.8410    2.8340   20.4250 O.co2     1 LIG        -0.8000 
      4 C2         -0.9880    5.2160   20.1900 C.3       1 LIG        -0.2200 
      5 C3         -2.2750    5.4710   20.9810 C.3       1 LIG        -0.1200 
      6 C4         -3.3110    6.2640   20.1940 C.3       1 LIG        -0.1200 
      7 C5         -2.6460    7.2620   19.2500 C.3       1 LIG        -0.1200 
      8 C6         -3.4440    8.5590   19.1860 C.3       1 LIG        -0.1200 
      9 C7         -2.5390    9.7660   18.9520 C.3       1 LIG        -0.1200 
     10 C8         -3.3500   10.9000   18.3560 C.3       1 LIG        -0.1200 
     11 C9         -2.8620   12.2730   18.8230 C.3       1 LIG        -0.1200 
     12 C10        -3.4780   13.3380   17.9350 C.3       1 LIG        -0.1200 
     13 C11        -2.9400   14.7450   18.2220 C.3       1 LIG        -0.1200 
     14 C12        -3.5540   15.6340   17.1770 C.3       1 LIG        -0.1200 
     15 C13        -3.7400   17.0450   17.6610 C.3       1 LIG        -0.1200 
     16 C14        -4.1920   17.9000   16.5090 C.3       1 LIG        -0.1800 
     17 H21        -0.6667    5.8912   19.4033 H         1 LIG         0.0600 
     18 H22        -0.1625    5.2481   20.9008 H         1 LIG         0.0600 
     19 H31        -2.0450    6.0378   21.8741 H         1 LIG         0.0600 
     20 H32        -2.7223    4.5485   21.3558 H         1 LIG         0.0600 
     21 H41        -3.9894    6.7403   20.8975 H         1 LIG         0.0600 
     22 H42        -3.9254    5.5843   19.6026 H         1 LIG         0.0600 
     23 H51        -2.4396    6.8505   18.2605 H         1 LIG         0.0600 
     24 H52        -1.7058    7.5970   19.6881 H         1 LIG         0.0600 
     25 H61        -3.9056    8.7150   20.1475 H         1 LIG         0.0600 
     26 H62        -4.2382    8.4718   18.4452 H         1 LIG         0.0600 
     27 H71        -1.7235    9.5217   18.2692 H         1 LIG         0.0600 
     28 H72        -2.0782   10.0620   19.8950 H         1 LIG         0.0600 
     29 H81        -4.4043   10.8129   18.6223 H         1 LIG         0.0600 
     30 H82        -3.3080   10.8204   17.2703 H         1 LIG         0.0600 
     31 H91        -1.7760   12.3210   18.7473 H         1 LIG         0.0600 
     32 H92        -3.1120   12.4292   19.8708 H         1 LIG         0.0600 
     33 H101       -4.5623   13.3182   18.0591 H         1 LIG         0.0600 
     34 H102       -3.2819   13.0930   16.8905 H         1 LIG         0.0600 
     35 H111       -1.8511   14.7825   18.1703 H         1 LIG         0.0600 
     36 H112       -3.2253   15.0600   19.2121 H         1 LIG         0.0600 
     37 H121       -4.5372   15.2794   16.8921 H         1 LIG         0.0600 
     38 H122       -2.9395   15.6056   16.2759 H         1 LIG         0.0600 
     39 H131       -2.8175   17.4433   18.0851 H         1 LIG         0.0600 
     40 H132       -4.4908   17.0746   18.4369 H         1 LIG         0.0600 
     41 H141       -4.5385   18.8699   16.8569 H         1 LIG         0.0600 
     42 H142       -3.3711   18.1021   15.8269 H         1 LIG         0.0600 
     43 H143       -5.0014   17.4348   15.9458 H         1 LIG         0.0600 
@<TRIPOS>BOND
     1    1    2 2    
     2    1    3 1    
     3    1    4 1    
     4    4    5 1    
     5    4   17 1    
     6    4   18 1    
     7    5    6 1    
     8    5   19 1    
     9    5   20 1    
    10    6    7 1    
    11    6   21 1    
    12    6   22 1    
    13    7    8 1    
    14    7   23 1    
    15    7   24 1    
    16    8    9 1    
    17    8   25 1    
    18    8   26 1    
    19    9   10 1    
    20    9   27 1    
    21    9   28 1    
    22   10   11 1    
    23   10   29 1    
    24   10   30 1    
    25   11   12 1    
    26   11   31 1    
    27   11   32 1    
    28   12   13 1    
    29   12   33 1    
    30   12   34 1    
    31   13   14 1    
    32   13   35 1    
    33   13   36 1    
    34   14   15 1    
    35   14   37 1    
    36   14   38 1    
    37   15   16 1    
    38   15   39 1    
    39   15   40 1    
    40   16   41 1    
    41   16   42 1    
    42   16   43 1    
@<TRIPOS>SUBSTRUCTURE
     1 LIG         1 GROUP             0       ****    0 ROOT    
