@<TRIPOS>MOLECULE
:2wvt_ligand
29   29    1
SMALL
USER_CHARGES


@<TRIPOS>ATOM
      1 O2        -27.7290    0.9920   29.3090 O.3       1 LIG        -0.6830 
      2 C2        -27.0330    2.1630   28.8140 C.3       1 LIG         0.2050 
      3 C3        -25.6630    1.7410   28.2990 C.3       1 LIG         0.2050 
      4 O3        -24.9660    1.1290   29.3780 O.3       1 LIG        -0.6830 
      5 C4        -24.9190    2.9610   27.8180 C.3       1 LIG         0.2050 
      6 O4        -24.7170    3.8990   28.8960 O.3       1 LIG        -0.6830 
      7 C5        -25.7370    3.6090   26.7150 C.3       1 LIG         0.2300 
      8 C7        -25.0640    4.9000   26.2620 C.3       1 LIG         0.1450 
      9 O7        -25.8680    5.4510   25.2360 O.3       1 LIG        -0.6830 
     10 N         -27.1200    3.9780   27.1270 N.4       1 LIG        -0.2000 
     11 C1        -27.8450    2.8270   27.7290 C.3       1 LIG         0.2300 
     12 C6        -28.2960    1.8110   26.6530 C.3       1 LIG         0.1450 
     13 O6        -29.0250    2.5480   25.6680 O.3       1 LIG        -0.6830 
     14 HO2       -27.7540    1.0461   30.2574 H         1 LIG         0.4180 
     15 H2        -26.9330    2.8456   29.6587 H         1 LIG         0.0600 
     16 H3        -25.7385    0.9991   27.5040 H         1 LIG         0.0600 
     17 HO3       -24.2208    0.6482   29.0298 H         1 LIG         0.4180 
     18 H4        -23.9377    2.6795   27.4496 H         1 LIG         0.0600 
     19 HO4       -25.5569    4.1934   29.2142 H         1 LIG         0.4180 
     20 H5        -25.7875    2.9230   25.8696 H         1 LIG         0.0600 
     21 H71       -24.0579    4.7219   25.8953 H         1 LIG         0.0600 
     22 H72       -24.9891    5.6374   27.0624 H         1 LIG         0.0600 
     23 HO7       -25.4236    6.2040   24.8747 H         1 LIG         0.4180 
     24 H1        -27.6262    4.3148   26.3203 H         1 LIG         0.3100 
     25 H2        -27.0863    4.7130   27.8259 H         1 LIG         0.3100 
     26 H1        -28.7485    3.2313   28.1839 H         1 LIG         0.0600 
     27 H61       -28.9624    1.0559   27.0705 H         1 LIG         0.0600 
     28 H62       -27.4724    1.2887   26.1689 H         1 LIG         0.0600 
     29 HO6       -28.4554    2.6675   24.9044 H         1 LIG         0.4180 
@<TRIPOS>BOND
     1    1    2 1    
     2    1   14 1    
     3    2    3 1    
     4    2   11 1    
     5    2   15 1    
     6    3    4 1    
     7    3    5 1    
     8    3   16 1    
     9    4   17 1    
    10    5    6 1    
    11    5    7 1    
    12    5   18 1    
    13    6   19 1    
    14    7    8 1    
    15    7   10 1    
    16    7   20 1    
    17    8    9 1    
    18    8   21 1    
    19    8   22 1    
    20    9   23 1    
    21   10   11 1    
    22   10   24 1    
    23   10   25 1    
    24   11   12 1    
    25   11   26 1    
    26   12   13 1    
    27   12   27 1    
    28   12   28 1    
    29   13   29 1    
@<TRIPOS>SUBSTRUCTURE
     1 LIG         1 GROUP             0       ****    0 ROOT    
