@<TRIPOS>MOLECULE
:1q8t_ligand
40   41    1
SMALL
USER_CHARGES


@<TRIPOS>ATOM
      1 O23         7.5670    9.6490    1.6590 O.2       1 LIG        -0.5000 
      2 C22         7.9850    9.4820    2.8080 C.2       1 LIG         0.5000 
      3 C31         9.3900    9.0330    3.1220 C.3       1 LIG        -0.0600 
      4 C36         9.8020    7.9260    2.1470 C.3       1 LIG        -0.1200 
      5 C35        11.1770    7.3720    2.5330 C.3       1 LIG        -0.1200 
      6 C34        12.1910    8.5000    2.3070 C.3       1 LIG        -0.0600 
      7 C33        11.8850    9.6720    3.2770 C.3       1 LIG        -0.1200 
      8 C32        10.4100   10.1890    3.1380 C.3       1 LIG        -0.1200 
      9 C41        13.6350    7.9160    2.3770 C.3       1 LIG         0.2500 
     10 C42        14.0090    7.2340    1.0480 C.3       1 LIG        -0.1800 
     11 N43        14.6510    8.9840    2.6880 N.4       1 LIG        -0.3000 
     12 N21         7.1750    9.6680    3.9630 N.am      1 LIG        -0.3850 
     13 C14         5.7350    9.7420    4.0100 C.ar      1 LIG         0.3770 
     14 C15         5.1650    9.6930    5.2930 C.ar      1 LIG        -0.4470 
     15 C16         3.7700    9.7460    5.3480 C.ar      1 LIG         0.4730 
     16 N11         3.0100    9.8540    4.2380 N.ar      1 LIG        -0.6780 
     17 C12         3.5410    9.9010    3.0060 C.ar      1 LIG         0.4730 
     18 C13         4.9180    9.8440    2.8470 C.ar      1 LIG        -0.4470 
     19 H31         9.3910    8.5743    4.1090 H         1 LIG         0.0600 
     20 H361        9.7865    8.2592    1.1077 H         1 LIG         0.0600 
     21 H362        9.0962    7.1060    2.2407 H         1 LIG         0.0600 
     22 H351       11.3818    6.5118    1.9077 H         1 LIG         0.0600 
     23 H352       11.1910    7.0248    3.5671 H         1 LIG         0.0600 
     24 H34        12.0582    8.8962    1.2979 H         1 LIG         0.0600 
     25 H331       12.5587   10.5117    3.1061 H         1 LIG         0.0600 
     26 H332       12.0519    9.3440    4.3041 H         1 LIG         0.0600 
     27 H321       10.1794   10.9043    3.9288 H         1 LIG         0.0600 
     28 H322       10.3482   10.7261    2.1935 H         1 LIG         0.0600 
     29 H41        13.6805    7.1851    3.1860 H         1 LIG         0.0600 
     30 H421       14.6982    6.4040    1.2039 H         1 LIG         0.0600 
     31 H422       13.1304    6.8679    0.5403 H         1 LIG         0.0600 
     32 H423       14.4937    7.9356    0.3690 H         1 LIG         0.0600 
     33 H431       15.5666    8.5677    2.7708 H         1 LIG         0.3300 
     34 H432       14.6570    9.6661    1.9436 H         1 LIG         0.3300 
     35 H433       14.4137    9.4484    3.5540 H         1 LIG         0.3300 
     36 HN21        7.6392    9.5543    4.8586 H         1 LIG         0.3000 
     37 H15         5.7653    9.6275    6.1858 H         1 LIG         0.1550 
     38 H16         3.2502    9.7263    6.2933 H         1 LIG         0.0120 
     39 H12         2.8749    9.9799    2.1612 H         1 LIG         0.0120 
     40 H13         5.2954    9.8902    1.8405 H         1 LIG         0.1550 
@<TRIPOS>BOND
     1    1    2 2    
     2    2    3 1    
     3    2   12 am   BACKBONE|DICT|INTERRES
     4    3    4 1    
     5    3    8 1    
     6    3   19 1    
     7    4    5 1    
     8    4   20 1    
     9    4   21 1    
    10    5    6 1    
    11    5   22 1    
    12    5   23 1    
    13    6    7 1    
    14    6    9 1    
    15    6   24 1    
    16    7    8 1    
    17    7   25 1    
    18    7   26 1    
    19    8   27 1    
    20    8   28 1    
    21    9   10 1    
    22    9   11 1    
    23    9   29 1    
    24   10   30 1    
    25   10   31 1    
    26   10   32 1    
    27   11   33 1    
    28   11   34 1    
    29   11   35 1    
    30   12   13 1    
    31   12   36 1    
    32   13   14 ar   
    33   13   18 ar   
    34   14   15 ar   
    35   14   37 1    
    36   15   16 ar   
    37   15   38 1    
    38   16   17 ar   
    39   17   18 ar   
    40   17   39 1    
    41   18   40 1    
@<TRIPOS>SUBSTRUCTURE
     1 LIG         1 GROUP             0       ****    0 ROOT    
