@<TRIPOS>MOLECULE
:1s38_ligand
22   23    1
SMALL
USER_CHARGES


@<TRIPOS>ATOM
      1 C1         17.1110   16.7670   18.7770 C.ar      1 LIG        -0.1150 
      2 C2         16.0680   16.4780   19.7180 C.ar      1 LIG        -0.1150 
      3 C9         14.6910   15.9090   19.2960 C.3       1 LIG        -0.0650 
      4 C3         16.3090   16.7310   21.1290 C.ar      1 LIG         0.0308 
      5 N3         15.3370   16.4740   22.0920 N.2       1 LIG        -0.5229 
      6 C8         15.5140   16.6900   23.3800 C.ar      1 LIG         0.6796 
      7 N2         14.5310   16.4170   24.2140 N.pl3     1 LIG        -0.7850 
      8 N1         16.6740   17.1860   23.8600 N.pl3     1 LIG        -0.4225 
      9 C7         17.7200   17.4890   23.0730 C.ar      1 LIG         0.6150 
     10 O1         18.7830   17.9410   23.4930 O.2       1 LIG        -0.5000 
     11 C4         17.5900   17.2630   21.5480 C.ar      1 LIG        -0.1150 
     12 C5         18.6150   17.5430   20.5890 C.ar      1 LIG        -0.1150 
     13 C6         18.3790   17.2950   19.1960 C.ar      1 LIG        -0.1150 
     14 H1         16.9102   16.6189   17.7304 H         1 LIG         0.1150 
     15 H91        14.4811   14.9806   19.8269 H         1 LIG         0.0600 
     16 H92        13.8953   16.6203   19.5068 H         1 LIG         0.0600 
     17 H93        14.6768   15.6924   18.2278 H         1 LIG         0.0600 
     18 H21        14.5695   16.6009   25.2109 H         1 LIG         0.3600 
     19 H22        13.6863   15.9307   23.9250 H         1 LIG         0.3600 
     20 HN1        16.7707   17.3238   24.8610 H         1 LIG         0.3000 
     21 H5         19.5672   17.9446   20.9032 H         1 LIG         0.1150 
     22 H6         19.1413   17.5133   18.4638 H         1 LIG         0.1150 
@<TRIPOS>BOND
     1    1    2 ar   
     2    1   13 ar   
     3    1   14 1    
     4    2    3 1    
     5    2    4 ar   
     6    3   15 1    
     7    3   16 1    
     8    3   17 1    
     9    4    5 ar   
    10    4   11 ar   
    11    5    6 ar   
    12    6    7 1    
    13    6    8 ar   
    14    7   18 1    
    15    7   19 1    
    16    8    9 ar   
    17    8   20 1    
    18    9   10 2    
    19    9   11 ar   
    20   11   12 ar   
    21   12   13 ar   
    22   12   21 1    
    23   13   22 1    
@<TRIPOS>SUBSTRUCTURE
     1 LIG         1 GROUP             0       ****    0 ROOT    
