@<TRIPOS>MOLECULE
:4de1_ligand
33   36    1
SMALL
USER_CHARGES


@<TRIPOS>ATOM
      1 O14        -9.2120   55.4320   13.8030 O.2       1 LIG        -0.5000 
      2 C13        -8.8880   55.5960   12.6160 C.2       1 LIG         0.6150 
      3 C15        -9.6930   56.5100   11.7420 C.ar      1 LIG        -0.1641 
      4 C20       -10.7160   57.2500   12.3480 C.ar      1 LIG        -0.2193 
      5 C19       -11.4270   58.1590   11.5830 C.ar      1 LIG         0.0183 
      6 C23       -12.5210   59.0220   11.9410 C.ar      1 LIG         0.0667 
      7 N22       -12.8350   59.6840   10.8070 N.2       1 LIG        -0.4212 
      8 N21       -11.9970   59.2600    9.7730 N.pl3     1 LIG        -0.1920 
      9 C18       -11.1310   58.3200   10.2380 C.ar      1 LIG         0.2601 
     10 C17       -10.1190   57.5960    9.6180 C.ar      1 LIG        -0.3879 
     11 C16        -9.3780   56.7000   10.3770 C.ar      1 LIG        -0.0293 
     12 N12        -7.8040   54.9990   12.1030 N.am      1 LIG        -0.3850 
     13 C8         -6.9440   54.1610   12.8240 C.ar      1 LIG         0.0850 
     14 C7         -5.6020   54.1490   12.4580 C.ar      1 LIG        -0.1150 
     15 C9         -7.4000   53.3290   13.8610 C.ar      1 LIG        -0.1150 
     16 C10        -6.4710   52.5690   14.5680 C.ar      1 LIG        -0.1150 
     17 C11        -5.1160   52.5580   14.2430 C.ar      1 LIG        -0.1150 
     18 C6         -4.7140   53.3440   13.1770 C.ar      1 LIG         0.0932 
     19 C2         -3.2930   53.3440   12.8090 C.ar      1 LIG         0.3192 
     20 N3         -2.8080   53.6280   11.5880 N.2       1 LIG        -0.5168 
     21 N4         -1.4420   53.4520   11.6620 N.ar      1 LIG        -0.1894 
     22 N5         -1.1290   53.0620   12.9220 N.ar      1 LIG        -0.1894 
     23 N1         -2.2780   53.0180   13.6300 N.ar      1 LIG        -0.5168 
     24 H20       -10.9276   57.1441   13.3963 H         1 LIG         0.1691 
     25 H23       -13.0425   59.1892   12.8715 H         1 LIG         0.1338 
     26 HN21      -12.0672   59.6430    8.8334 H         1 LIG         0.3331 
     27 H17        -9.8911   57.7338    8.5733 H         1 LIG         0.1888 
     28 H16        -8.5778   56.1530    9.9000 H         1 LIG         0.1289 
     29 HN12       -7.5128   55.2631   11.1733 H         1 LIG         0.3000 
     30 H7         -5.2563   54.7756   11.6502 H         1 LIG         0.1150 
     31 H9         -8.4407   53.2374   14.1286 H         1 LIG         0.1150 
     32 H10        -6.8080   51.9641   15.3933 H         1 LIG         0.1150 
     33 H11        -4.4324   51.9407   14.7980 H         1 LIG         0.1150 
@<TRIPOS>BOND
     1    1    2 2    
     2    2    3 1    
     3    2   12 am   BACKBONE|DICT|INTERRES
     4    3    4 ar   
     5    3   11 ar   
     6    4    5 ar   
     7    4   24 1    
     8    5    6 ar   
     9    5    9 ar   
    10    6    7 ar   
    11    6   25 1    
    12    7    8 ar   
    13    8    9 ar   
    14    8   26 1    
    15    9   10 ar   
    16   10   11 ar   
    17   10   27 1    
    18   11   28 1    
    19   12   13 1    
    20   12   29 1    
    21   13   14 ar   
    22   13   15 ar   
    23   14   18 ar   
    24   14   30 1    
    25   15   16 ar   
    26   15   31 1    
    27   16   17 ar   
    28   16   32 1    
    29   17   18 ar   
    30   17   33 1    
    31   18   19 1    
    32   19   20 ar   
    33   19   23 ar   
    34   20   21 ar   
    35   21   22 ar   
    36   22   23 ar   
@<TRIPOS>SUBSTRUCTURE
     1 LIG         1 GROUP             0       ****    0 ROOT    
