@<TRIPOS>MOLECULE
:2br1_ligand
50   53    1
SMALL
USER_CHARGES


@<TRIPOS>ATOM
      1 CAB        18.9620   -8.0070   12.9180 C.3       1 LIG         0.1100 
      2 OAS        17.6310   -7.6670   12.5680 O.3       1 LIG        -0.2850 
      3 CAV        17.6080   -6.4090   11.9280 C.ar      1 LIG         0.0850 
      4 CAG        18.3940   -5.3380   12.4250 C.ar      1 LIG        -0.1150 
      5 CAK        18.3210   -4.0440   11.7950 C.ar      1 LIG        -0.1150 
      6 CAF        16.7450   -6.1960   10.8440 C.ar      1 LIG        -0.1150 
      7 CAJ        16.6770   -4.9250   10.2200 C.ar      1 LIG        -0.1150 
      8 CAX        17.4810   -3.8550   10.6780 C.ar      1 LIG         0.0000 
      9 CBA        17.3310   -2.4950   10.0540 C.2       1 LIG        -0.0280 
     10 CBC        16.1970   -1.8060    9.9290 C.ar      1 LIG        -0.3830 
     11 CAY        14.9220   -1.9560   10.4670 C.ar      1 LIG         0.8640 
     12 NAQ        14.6190   -3.0080   11.2120 N.pl3     1 LIG        -0.7800 
     13 CAN        13.2030   -3.2550   11.6010 C.3       1 LIG         0.0800 
     14 CAM        12.5240   -2.3810   12.7310 C.3       1 LIG         0.1450 
     15 OAC        12.1040   -0.9840   12.4450 O.3       1 LIG        -0.6830 
     16 NAO        13.9850   -1.0330   10.2090 N.ar      1 LIG        -0.8390 
     17 CAL        14.2790    0.0380    9.4700 C.ar      1 LIG         0.8740 
     18 NAP        15.5230    0.2070    8.9640 N.ar      1 LIG        -0.8390 
     19 CBB        16.4790   -0.7010    9.1890 C.ar      1 LIG         0.6500 
     20 OAT        17.7140   -0.7390    8.8380 O.3       1 LIG        -0.1900 
     21 CAZ        18.2670   -1.8180    9.2740 C.2       1 LIG         0.5364 
     22 CAW        19.5820   -2.1570    9.0700 C.ar      1 LIG        -0.4134 
     23 CAH        20.4510   -1.2110    8.5100 C.ar      1 LIG        -0.1150 
     24 CAD        21.7700   -1.5370    8.2650 C.ar      1 LIG        -0.1150 
     25 CAU        22.2320   -2.8040    8.5440 C.ar      1 LIG         0.0850 
     26 OAR        23.5290   -3.1180    8.3000 O.3       1 LIG        -0.2850 
     27 CAA        24.5290   -2.0490    8.1770 C.3       1 LIG         0.1100 
     28 CAE        21.3610   -3.7670    9.0800 C.ar      1 LIG        -0.1150 
     29 CAI        20.0290   -3.4400    9.3210 C.ar      1 LIG        -0.1150 
     30 HAB1       19.0221   -9.0897   13.0280 H         1 LIG         0.0300 
     31 HAB2       19.6980   -7.7235   12.1625 H         1 LIG         0.0300 
     32 HAB3       19.2446   -7.5763   13.8792 H         1 LIG         0.0300 
     33 HAG        19.0263   -5.4614   13.2806 H         1 LIG         0.1150 
     34 HAK        18.9067   -3.2238   12.1848 H         1 LIG         0.1150 
     35 HAF        16.1283   -7.0068   10.4853 H         1 LIG         0.1150 
     36 HAJ        16.0080   -4.7630    9.3900 H         1 LIG         0.1150 
     37 HNAQ       15.3172   -3.7156   11.3939 H         1 LIG         0.3800 
     38 HAN1       13.1823   -4.2843   11.9569 H         1 LIG         0.0600 
     39 HAN2       12.5768   -3.2473   10.7076 H         1 LIG         0.0600 
     40 HAM1       13.1915   -2.3519   13.5930 H         1 LIG         0.0600 
     41 HAM2       11.6283   -2.9002   13.0726 H         1 LIG         0.0600 
     42 HOAC       12.7918   -0.5781   11.9357 H         1 LIG         0.4180 
     43 HAL        13.4334    0.6292    9.2188 H         1 LIG        -0.0320 
     44 HAH        20.1057   -0.2423    8.2109 H         1 LIG         0.1150 
     45 HAD        22.3962   -0.7765    7.8250 H         1 LIG         0.1150 
     46 HAA1       25.5274   -2.4843    8.2134 H         1 LIG         0.0300 
     47 HAA2       24.4336   -1.5246    7.2256 H         1 LIG         0.0300 
     48 HAA3       24.4516   -1.3302    8.9944 H         1 LIG         0.0300 
     49 HAE        21.7128   -4.7713    9.2668 H         1 LIG         0.1150 
     50 HAI        19.4494   -4.2940    9.5936 H         1 LIG         0.1150 
@<TRIPOS>BOND
     1    1    2 1    
     2    1   30 1    
     3    1   31 1    
     4    1   32 1    
     5    2    3 1    
     6    3    4 ar   
     7    3    6 ar   
     8    4    5 ar   
     9    4   33 1    
    10    5    8 ar   
    11    5   34 1    
    12    6    7 ar   
    13    6   35 1    
    14    7    8 ar   
    15    7   36 1    
    16    8    9 1    
    17    9   10 1    
    18    9   21 2    
    19   10   11 ar   
    20   10   19 ar   
    21   11   12 1    
    22   11   16 ar   
    23   12   13 1    
    24   12   37 1    
    25   13   14 1    
    26   13   38 1    
    27   13   39 1    
    28   14   15 1    
    29   14   40 1    
    30   14   41 1    
    31   15   42 1    
    32   16   17 ar   
    33   17   18 ar   
    34   17   43 1    
    35   18   19 ar   
    36   19   20 1    
    37   20   21 1    
    38   21   22 1    
    39   22   23 ar   
    40   22   29 ar   
    41   23   24 ar   
    42   23   44 1    
    43   24   25 ar   
    44   24   45 1    
    45   25   26 1    
    46   25   28 ar   
    47   26   27 1    
    48   27   46 1    
    49   27   47 1    
    50   27   48 1    
    51   28   29 ar   
    52   28   49 1    
    53   29   50 1    
@<TRIPOS>SUBSTRUCTURE
     1 LIG         1 GROUP             0       ****    0 ROOT    
