@<TRIPOS>MOLECULE
:2v7a_ligand
66   70    1
SMALL
USER_CHARGES


@<TRIPOS>ATOM
      1 N1        -41.5340  -46.3820  -10.4830 N.am      1 LIG        -0.1400 
      2 N2        -38.9440  -47.7120  -12.6370 N.pl3     1 LIG        -0.1490 
      3 C3        -40.4680  -49.3270  -12.4040 C.ar      1 LIG         0.4230 
      4 N4        -39.2690  -49.0590  -12.9530 N.2       1 LIG        -0.5310 
      5 N5        -41.0120  -50.5850  -12.5470 N.am      1 LIG        -0.3850 
      6 C6        -42.2820  -50.9100  -12.3700 C.2       1 LIG         0.6150 
      7 C7        -42.6550  -52.3300  -12.5570 C.ar      1 LIG        -0.1150 
      8 O8        -43.1600  -50.1190  -12.0800 O.2       1 LIG        -0.5000 
      9 C9        -43.8250  -52.7650  -11.9540 C.ar      1 LIG        -0.1150 
     10 C10       -44.2500  -54.0700  -12.0910 C.ar      1 LIG        -0.1150 
     11 C11       -42.2860  -54.4960  -13.4390 C.ar      1 LIG        -0.1150 
     12 C12       -41.8650  -53.1850  -13.3110 C.ar      1 LIG        -0.1150 
     13 C13       -39.9680  -47.2170  -11.9130 C.ar      1 LIG         0.0560 
     14 C14       -40.9620  -48.2280  -11.7300 C.ar      1 LIG        -0.2850 
     15 C15       -42.0890  -47.7140  -10.8900 C.3       1 LIG         0.0650 
     16 C16       -40.3240  -45.9500  -11.2150 C.3       1 LIG         0.0650 
     17 N17       -43.9090  -56.2660  -12.9770 N.pl3     1 LIG        -0.6300 
     18 C18       -44.8070  -56.7740  -12.2280 C.3       1 LIG         0.0900 
     19 C19       -44.5700  -57.9900  -11.7140 C.3       1 LIG         0.1500 
     20 N20       -43.6110  -58.8840  -12.3120 N.4       1 LIG        -0.1000 
     21 C21       -42.6240  -58.1950  -13.1890 C.3       1 LIG         0.1500 
     22 C22       -43.2910  -57.0970  -14.0150 C.3       1 LIG         0.0900 
     23 C23       -42.8610  -59.6260  -11.2800 C.3       1 LIG         0.0900 
     24 C24       -43.4780  -54.9360  -12.8330 C.ar      1 LIG         0.2100 
     25 C25       -42.0550  -45.5900   -9.5330 C.2       1 LIG         0.5000 
     26 O26       -41.5580  -44.5040   -9.2400 O.2       1 LIG        -0.5000 
     27 C27       -43.5290  -48.3090   -7.7100 C.ar      1 LIG        -0.1150 
     28 C28       -43.1140  -49.2810   -6.8010 C.ar      1 LIG        -0.1150 
     29 C29       -42.8400  -47.0760   -7.7950 C.ar      1 LIG        -0.0418 
     30 C31       -42.0120  -49.0070   -5.9660 C.ar      1 LIG        -0.1150 
     31 C33       -41.7460  -46.8220   -6.9410 C.ar      1 LIG        -0.1150 
     32 C20       -43.2740  -46.0540   -8.7970 C.3       1 LIG         0.2118 
     33 C35       -41.3300  -47.7880   -6.0390 C.ar      1 LIG        -0.1150 
     34 C36       -45.1420  -45.2110   -7.5230 C.3       1 LIG         0.1100 
     35 O34       -43.9080  -44.9170   -8.2070 O.3       1 LIG        -0.4000 
     36 HN2       -38.0961  -47.2504  -12.9479 H         1 LIG         0.3410 
     37 HN5       -40.3830  -51.3120  -12.8584 H         1 LIG         0.3000 
     38 H9        -44.4434  -52.0910  -11.3780 H         1 LIG         0.1150 
     39 H10       -45.2055  -54.2983  -11.6491 H         1 LIG         0.1150 
     40 H11       -41.6454  -55.1226  -14.0246 H         1 LIG         0.1150 
     41 H12       -40.9810  -52.8542  -13.8288 H         1 LIG         0.1150 
     42 H151      -43.0108  -47.5954  -11.4550 H         1 LIG         0.0600 
     43 H152      -42.2681  -48.3762  -10.0470 H         1 LIG         0.0600 
     44 H161      -39.5220  -45.6337  -10.5457 H         1 LIG         0.0600 
     45 H162      -40.5474  -45.1517  -11.9242 H         1 LIG         0.0600 
     46 H181      -45.6993  -56.8341  -12.8539 H         1 LIG         0.0600 
     47 H182      -45.1141  -56.1845  -11.3706 H         1 LIG         0.0600 
     48 H191      -45.5085  -58.5335  -11.5927 H         1 LIG         0.0600 
     49 H192      -44.2400  -57.8096  -10.6867 H         1 LIG         0.0600 
     50 HN20      -44.1243  -59.5364  -12.8872 H         1 LIG         0.2900 
     51 H211      -42.1503  -58.9263  -13.8447 H         1 LIG         0.0600 
     52 H212      -41.8254  -57.7483  -12.5927 H         1 LIG         0.0600 
     53 H221      -42.6138  -56.6331  -14.7245 H         1 LIG         0.0600 
     54 H222      -44.0829  -57.5299  -14.6281 H         1 LIG         0.0600 
     55 H231      -42.1840  -60.3458  -11.7418 H         1 LIG         0.0600 
     56 H232      -42.2660  -58.9656  -10.6463 H         1 LIG         0.0600 
     57 H233      -43.5427  -60.1860  -10.6379 H         1 LIG         0.0600 
     58 H27       -44.3699  -48.5102   -8.3580 H         1 LIG         0.1150 
     59 H28       -43.6253  -50.2301   -6.7415 H         1 LIG         0.1150 
     60 H31       -41.6604  -49.7652   -5.2838 H         1 LIG         0.1150 
     61 H33       -41.2170  -45.8805   -6.9691 H         1 LIG         0.1150 
     62 H20       -43.9799  -46.4889   -9.5069 H         1 LIG         0.0300 
     63 H35       -40.4867  -47.5981   -5.3937 H         1 LIG         0.1150 
     64 H361      -45.5804  -44.2881   -7.1438 H         1 LIG         0.0300 
     65 H362      -45.8489  -45.6574   -8.2207 H         1 LIG         0.0300 
     66 H363      -44.9955  -45.8847   -6.6785 H         1 LIG         0.0300 
@<TRIPOS>BOND
     1    1   15 1    
     2    1   16 1    
     3    1   25 am   BACKBONE|DICT|INTERRES
     4    2    4 ar   
     5    2   13 ar   
     6    2   36 1    
     7    3    4 ar   
     8    3    5 1    
     9    3   14 ar   
    10    5    6 am   BACKBONE|DICT|INTERRES
    11    5   37 1    
    12    6    7 1    
    13    6    8 2    
    14    7    9 ar   
    15    7   12 ar   
    16    9   10 ar   
    17    9   38 1    
    18   10   24 ar   
    19   10   39 1    
    20   11   12 ar   
    21   11   24 ar   
    22   11   40 1    
    23   12   41 1    
    24   13   14 ar   
    25   13   16 1    
    26   14   15 1    
    27   15   42 1    
    28   15   43 1    
    29   16   44 1    
    30   16   45 1    
    31   17   18 1    
    32   17   22 1    
    33   17   24 1    
    34   18   19 1    
    35   18   46 1    
    36   18   47 1    
    37   19   20 1    
    38   19   48 1    
    39   19   49 1    
    40   20   21 1    
    41   20   23 1    
    42   20   50 1    
    43   21   22 1    
    44   21   51 1    
    45   21   52 1    
    46   22   53 1    
    47   22   54 1    
    48   23   55 1    
    49   23   56 1    
    50   23   57 1    
    51   25   26 2    
    52   25   32 1    
    53   27   28 ar   
    54   27   29 ar   
    55   27   58 1    
    56   28   30 ar   
    57   28   59 1    
    58   29   31 ar   
    59   29   32 1    
    60   30   33 ar   
    61   30   60 1    
    62   31   33 ar   
    63   31   61 1    
    64   32   35 1    
    65   32   62 1    
    66   33   63 1    
    67   34   35 1    
    68   34   64 1    
    69   34   65 1    
    70   34   66 1    
@<TRIPOS>SUBSTRUCTURE
     1 LIG         1 GROUP             0       ****    0 ROOT    
