@<TRIPOS>MOLECULE
:4owm_ligand
16   16    1
SMALL
USER_CHARGES


@<TRIPOS>ATOM
      1 OAB       -20.2830  -34.0490   18.7420 O.co2     1 LIG        -0.8000 
      2 CAH       -19.3040  -34.8020   18.5300 C.2       1 LIG         0.7150 
      3 OAC       -19.0770  -35.7580   19.3060 O.co2     1 LIG        -0.8000 
      4 CAK       -18.4730  -34.5440   17.4440 C.ar      1 LIG        -0.1150 
      5 CAG       -17.6090  -35.5330   16.9470 C.ar      1 LIG        -0.1150 
      6 CAE       -16.7840  -35.2310   15.8460 C.ar      1 LIG        -0.1150 
      7 CAF       -16.8290  -33.9620   15.2570 C.ar      1 LIG        -0.1150 
      8 CAJ       -17.6980  -32.9760   15.7370 C.ar      1 LIG         0.2200 
      9 FAD       -17.7860  -31.6110   15.1800 F         1 LIG        -0.2200 
     10 CAI       -18.4880  -33.2800   16.8240 C.ar      1 LIG         0.1800 
     11 NAA       -19.2870  -32.2950   17.2560 N.pl3     1 LIG        -0.9000 
     12 HAG       -17.5663  -36.5176   17.3905 H         1 LIG         0.1150 
     13 HAE       -16.1199  -35.9894   15.4606 H         1 LIG         0.1150 
     14 HAF       -16.2240  -33.7155   14.4055 H         1 LIG         0.1150 
     15 HAA1      -19.4816  -31.5263   16.6331 H         1 LIG         0.3600 
     16 HAA2      -20.0388  -32.5720   17.8814 H         1 LIG         0.3600 
@<TRIPOS>BOND
     1    1    2 2    
     2    2    3 1    
     3    2    4 1    
     4    4    5 ar   
     5    4   10 ar   
     6    5    6 ar   
     7    5   12 1    
     8    6    7 ar   
     9    6   13 1    
    10    7    8 ar   
    11    7   14 1    
    12    8    9 1    
    13    8   10 ar   
    14   10   11 1    
    15   11   15 1    
    16   11   16 1    
@<TRIPOS>SUBSTRUCTURE
     1 LIG         1 GROUP             0       ****    0 ROOT    
