@<TRIPOS>MOLECULE
:3uew_ligand
49   48    1
SMALL
USER_CHARGES


@<TRIPOS>ATOM
      1 C1         -0.8000    1.7730   20.8220 C.2       1 LIG         0.7000 
      2 O1          0.2410    1.6240   21.4990 O.co2     1 LIG        -0.8000 
      3 O2         -1.7190    0.9200   20.7870 O.co2     1 LIG        -0.8000 
      4 C2         -0.9670    3.0420   20.0130 C.3       1 LIG        -0.2200 
      5 C3         -1.3310    4.1730   20.9660 C.3       1 LIG        -0.1200 
      6 C4         -2.0470    5.3020   20.2350 C.3       1 LIG        -0.1200 
      7 C5         -3.3550    5.6970   20.9160 C.3       1 LIG        -0.1200 
      8 C6         -4.1010    6.7160   20.0630 C.3       1 LIG        -0.1200 
      9 C7         -3.1910    7.8780   19.6570 C.3       1 LIG        -0.1200 
     10 C8         -4.0060    9.1170   19.3150 C.3       1 LIG        -0.1200 
     11 C9         -3.1540   10.3760   19.4300 C.3       1 LIG        -0.1200 
     12 CA         -3.7930   11.5070   18.6460 C.3       1 LIG        -0.1200 
     13 CB         -3.1500   12.8240   18.9990 C.3       1 LIG        -0.1200 
     14 CC         -3.9340   13.9420   18.3530 C.3       1 LIG        -0.1200 
     15 CD         -3.1490   15.2270   18.4660 C.3       1 LIG        -0.1200 
     16 CE         -4.0110   16.4400   18.1550 C.3       1 LIG        -0.1200 
     17 CF         -3.6980   17.0690   16.8160 C.3       1 LIG        -0.1200 
     18 CG         -4.5000   18.3250   16.5610 C.3       1 LIG        -0.1800 
     19 H21        -1.7576    2.8660   19.2820 H         1 LIG         0.0600 
     20 H22        -0.0562    3.2682   19.4577 H         1 LIG         0.0600 
     21 H31        -0.4241    4.5867   21.3969 H         1 LIG         0.0600 
     22 H32        -1.9389    3.8152   21.8004 H         1 LIG         0.0600 
     23 H41        -2.2559    5.0279   19.1999 H         1 LIG         0.0600 
     24 H42        -1.3549    6.1425   20.1833 H         1 LIG         0.0600 
     25 H51        -3.1489    6.1103   21.9047 H         1 LIG         0.0600 
     26 H52        -3.9885    4.8221   21.0680 H         1 LIG         0.0600 
     27 H61        -4.9582    7.0704   20.6351 H         1 LIG         0.0600 
     28 H62        -4.5082    6.2419   19.1689 H         1 LIG         0.0600 
     29 H71        -2.5599    7.5916   18.8221 H         1 LIG         0.0600 
     30 H72        -2.5349    8.1236   20.4938 H         1 LIG         0.0600 
     31 H81        -4.8633    9.1927   19.9675 H         1 LIG         0.0600 
     32 H82        -4.4205    9.0035   18.3311 H         1 LIG         0.0600 
     33 H91        -2.1251   10.2190   19.1248 H         1 LIG         0.0600 
     34 H92        -3.0995   10.6457   20.4852 H         1 LIG         0.0600 
     35 HA1        -4.8633   11.5470   18.8556 H         1 LIG         0.0600 
     36 HA2        -3.6722   11.3271   17.5815 H         1 LIG         0.0600 
     37 HB1        -2.1149   12.8182   18.6707 H         1 LIG         0.0600 
     38 HB2        -3.1345   12.9672   20.0801 H         1 LIG         0.0600 
     39 HC1        -4.9068   14.0263   18.8362 H         1 LIG         0.0600 
     40 HC2        -4.1279   13.7314   17.3006 H         1 LIG         0.0600 
     41 HD1        -2.2621   15.1910   17.8323 H         1 LIG         0.0600 
     42 HD2        -2.7777   15.3283   19.4865 H         1 LIG         0.0600 
     43 HE1        -3.8140   17.1967   18.9141 H         1 LIG         0.0600 
     44 HE2        -5.0748   16.2124   18.2309 H         1 LIG         0.0600 
     45 HF1        -3.8984   16.3419   16.0292 H         1 LIG         0.0600 
     46 HF2        -2.6409   17.3083   16.7604 H         1 LIG         0.0600 
     47 HG1        -4.2770   18.7437   15.5796 H         1 LIG         0.0600 
     48 HG2        -5.5661   18.1068   16.5975 H         1 LIG         0.0600 
     49 HG3        -4.2826   19.0909   17.3052 H         1 LIG         0.0600 
@<TRIPOS>BOND
     1    1    2 2    
     2    1    3 1    
     3    1    4 1    
     4    4    5 1    
     5    4   19 1    
     6    4   20 1    
     7    5    6 1    
     8    5   21 1    
     9    5   22 1    
    10    6    7 1    
    11    6   23 1    
    12    6   24 1    
    13    7    8 1    
    14    7   25 1    
    15    7   26 1    
    16    8    9 1    
    17    8   27 1    
    18    8   28 1    
    19    9   10 1    
    20    9   29 1    
    21    9   30 1    
    22   10   11 1    
    23   10   31 1    
    24   10   32 1    
    25   11   12 1    
    26   11   33 1    
    27   11   34 1    
    28   12   13 1    
    29   12   35 1    
    30   12   36 1    
    31   13   14 1    
    32   13   37 1    
    33   13   38 1    
    34   14   15 1    
    35   14   39 1    
    36   14   40 1    
    37   15   16 1    
    38   15   41 1    
    39   15   42 1    
    40   16   17 1    
    41   16   43 1    
    42   16   44 1    
    43   17   18 1    
    44   17   45 1    
    45   17   46 1    
    46   18   47 1    
    47   18   48 1    
    48   18   49 1    
@<TRIPOS>SUBSTRUCTURE
     1 LIG         1 GROUP             0       ****    0 ROOT    
