@<TRIPOS>MOLECULE
:3uo4_ligand
46   49    1
SMALL
USER_CHARGES


@<TRIPOS>ATOM
      1 N01         3.3240   31.8130    8.7720 N.ar      1 LIG        -0.8390 
      2 N02         3.9920   31.0910    6.6460 N.ar      1 LIG        -0.8390 
      3 N03         5.1850   28.9910    6.3330 N.pl3     1 LIG        -0.7800 
      4 N04         2.8100   33.1870    6.9250 N.pl3     1 LIG        -0.7043 
      5 C05         3.8550   30.7150    9.3340 C.ar      1 LIG         0.6530 
      6 C06         3.3940   31.9830    7.4480 C.ar      1 LIG         0.9663 
      7 C07         4.5400   29.9730    7.1670 C.ar      1 LIG         0.8640 
      8 C08         4.4810   29.7570    8.5430 C.ar      1 LIG        -0.6890 
      9 C09         5.3080   29.1560    4.9110 C.ar      1 LIG         0.2000 
     10 C10         4.1690   29.2970    4.1320 C.ar      1 LIG        -0.1150 
     11 C11         4.2830   29.4510    2.7580 C.ar      1 LIG        -0.1150 
     12 C12         5.5270   29.4620    2.1490 C.ar      1 LIG        -0.1150 
     13 C13         6.6650   29.3170    2.9260 C.ar      1 LIG        -0.1150 
     14 C14         6.5600   29.1630    4.3020 C.ar      1 LIG         0.0000 
     15 C15         7.8100   29.0150    5.1070 C.ar      1 LIG         0.0000 
     16 C16         2.3670   33.4040    5.5790 C.ar      1 LIG         0.2000 
     17 C17         1.3210   34.2930    5.3680 C.ar      1 LIG        -0.1150 
     18 C18         0.8660   34.5490    4.0840 C.ar      1 LIG        -0.1150 
     19 C19         1.4610   33.9140    3.0030 C.ar      1 LIG        -0.1150 
     20 C20         2.5130   33.0280    3.2090 C.ar      1 LIG        -0.1150 
     21 C21         2.9690   32.7760    4.4970 C.ar      1 LIG        -0.1150 
     22 C22         0.9650   34.1900    1.6220 C.2       1 LIG         0.7150 
     23 C23         8.1860   27.7760    5.6060 C.ar      1 LIG        -0.1150 
     24 C24         9.3520   27.6560    6.3460 C.ar      1 LIG        -0.1150 
     25 C25        10.1400   28.7720    6.5840 C.ar      1 LIG        -0.1150 
     26 C26         9.7680   30.0100    6.0860 C.ar      1 LIG        -0.1150 
     27 C27         8.6030   30.1290    5.3450 C.ar      1 LIG        -0.1150 
     28 O28         1.6710   33.8690    0.6290 O.co2     1 LIG        -0.8000 
     29 O29        -0.1570   34.7430    1.4500 O.co2     1 LIG        -0.8000 
     30 HN03        5.8772   28.4139    6.7876 H         1 LIG         0.3800 
     31 HN04        2.4323   33.8234    7.6156 H         1 LIG         0.3800 
     32 H05         3.7541   30.5650   10.3853 H         1 LIG         0.0110 
     33 H08         4.8992   28.8670    8.9897 H         1 LIG         0.1970 
     34 H10         3.2074   29.3985    4.6087 H         1 LIG         0.1150 
     35 H11         3.5211   30.0253    2.2929 H         1 LIG         0.1150 
     36 H12         5.6159   29.6905    1.0971 H         1 LIG         0.1150 
     37 H13         7.6389   29.3512    2.4590 H         1 LIG         0.1150 
     38 H17         0.8433   34.7954    6.1940 H         1 LIG         0.1150 
     39 H18         0.0573   35.2518    3.9449 H         1 LIG         0.1150 
     40 H20         2.9949   32.5381    2.3750 H         1 LIG         0.1150 
     41 H21         3.8298   32.1368    4.5715 H         1 LIG         0.1150 
     42 H23         7.5677   26.9073    5.4306 H         1 LIG         0.1150 
     43 H24         9.6144   26.7074    6.7917 H         1 LIG         0.1150 
     44 H25        10.8609   28.7968    7.3569 H         1 LIG         0.1150 
     45 H26        10.3368   30.8940    6.3298 H         1 LIG         0.1150 
     46 H27         8.3094   31.0969    4.9692 H         1 LIG         0.1150 
@<TRIPOS>BOND
     1    1    5 ar   
     2    1    6 ar   
     3    2    6 ar   
     4    2    7 ar   
     5    3    7 1    
     6    3    9 1    
     7    3   30 1    
     8    4    6 1    
     9    4   16 1    
    10    4   31 1    
    11    5    8 ar   
    12    5   32 1    
    13    7    8 ar   
    14    8   33 1    
    15    9   10 ar   
    16    9   14 ar   
    17   10   11 ar   
    18   10   34 1    
    19   11   12 ar   
    20   11   35 1    
    21   12   13 ar   
    22   12   36 1    
    23   13   14 ar   
    24   13   37 1    
    25   14   15 1    
    26   15   23 ar   
    27   15   27 ar   
    28   16   17 ar   
    29   16   21 ar   
    30   17   18 ar   
    31   17   38 1    
    32   18   19 ar   
    33   18   39 1    
    34   19   20 ar   
    35   19   22 1    
    36   20   21 ar   
    37   20   40 1    
    38   21   41 1    
    39   22   28 2    
    40   22   29 1    
    41   23   24 ar   
    42   23   42 1    
    43   24   25 ar   
    44   24   43 1    
    45   25   26 ar   
    46   25   44 1    
    47   26   27 ar   
    48   26   45 1    
    49   27   46 1    
@<TRIPOS>SUBSTRUCTURE
     1 LIG         1 GROUP             0       ****    0 ROOT    
