@<TRIPOS>MOLECULE
:3zdg_ligand
34   33    1
SMALL
USER_CHARGES


@<TRIPOS>ATOM
      1 N1       -100.2410   36.4870   27.2470 N.4       1 LIG        -0.1000 
      2 C2        -99.8940   38.8430   25.0890 C.3       1 LIG         0.1900 
      3 O3       -101.2800   38.6950   25.4140 O.3       1 LIG        -0.3300 
      4 C4       -100.8450   37.1220   28.4590 C.3       1 LIG         0.0900 
      5 N5       -103.4830   39.1630   25.1790 N.am      1 LIG        -0.2219 
      6 O6       -102.0040   39.6250   23.4560 O.2       1 LIG        -0.4970 
      7 C7        -98.9660   37.1360   26.8560 C.3       1 LIG         0.2100 
      8 C8        -99.1060   38.6130   26.4020 C.3       1 LIG        -0.1200 
      9 C9       -102.2250   39.2110   24.5860 C.2       1 LIG         0.6995 
     10 C10       -99.9910   35.0350   27.4960 C.3       1 LIG         0.0900 
     11 C11       -98.0810   37.0580   28.1000 C.3       1 LIG        -0.1800 
     12 C12      -104.6510   39.4980   24.3360 C.3       1 LIG        -0.1303 
     13 C13      -103.7190   38.4620   26.4480 C.3       1 LIG        -0.1303 
     14 HN1      -100.8813   36.5691   26.4659 H         1 LIG         0.2900 
     15 H21       -99.6604   39.8050   24.6369 H         1 LIG         0.0300 
     16 H22       -99.6926   38.0415   24.4055 H         1 LIG         0.0300 
     17 H41      -101.8400   36.7049   28.5892 H         1 LIG         0.0600 
     18 H42      -100.3103   36.9312   29.3891 H         1 LIG         0.0600 
     19 H43      -100.9866   38.1950   28.3475 H         1 LIG         0.0600 
     20 H7        -98.5232   36.5706   26.0459 H         1 LIG         0.0600 
     21 H81       -99.4935   39.2591   27.1892 H         1 LIG         0.0600 
     22 H82       -98.0961   38.9837   26.2217 H         1 LIG         0.0600 
     23 H101      -99.2279   34.6155   26.8403 H         1 LIG         0.0600 
     24 H102      -99.7990   34.8598   28.5519 H         1 LIG         0.0600 
     25 H103     -100.9156   34.4999   27.2845 H         1 LIG         0.0600 
     26 H111      -97.0608   37.3048   27.8094 H         1 LIG         0.0600 
     27 H112      -98.3452   37.7915   28.8625 H         1 LIG         0.0600 
     28 H113      -98.0111   36.0870   28.5787 H         1 LIG         0.0600 
     29 H121     -105.5309   38.9798   24.7152 H         1 LIG         0.0600 
     30 H122     -104.8322   40.5721   24.3601 H         1 LIG         0.0600 
     31 H123     -104.5244   39.1970   23.2953 H         1 LIG         0.0600 
     32 H131     -104.7788   38.4436   26.6968 H         1 LIG         0.0600 
     33 H132     -103.3627   37.4331   26.4264 H         1 LIG         0.0600 
     34 H133     -103.2059   38.9755   27.2606 H         1 LIG         0.0600 
@<TRIPOS>BOND
     1    1    4 1    
     2    1    7 1    
     3    1   10 1    
     4    1   14 1    
     5    2    3 1    
     6    2    8 1    
     7    2   15 1    
     8    2   16 1    
     9    3    9 1    
    10    4   17 1    
    11    4   18 1    
    12    4   19 1    
    13    5    9 am   BACKBONE|DICT|INTERRES
    14    5   12 1    
    15    5   13 1    
    16    6    9 2    
    17    7    8 1    
    18    7   11 1    
    19    7   20 1    
    20    8   21 1    
    21    8   22 1    
    22   10   23 1    
    23   10   24 1    
    24   10   25 1    
    25   11   26 1    
    26   11   27 1    
    27   11   28 1    
    28   12   29 1    
    29   12   30 1    
    30   12   31 1    
    31   13   32 1    
    32   13   33 1    
    33   13   34 1    
@<TRIPOS>SUBSTRUCTURE
     1 LIG         1 GROUP             0       ****    0 ROOT    
