@<TRIPOS>MOLECULE
:4kz6_ligand
31   31    1
SMALL
USER_CHARGES


@<TRIPOS>ATOM
      1 C01        77.5190    7.7140   27.7450 C.3       1 LIG        -0.1800 
      2 C02        78.6890    8.0180   28.6170 C.3       1 LIG         0.0100 
      3 C03        79.7050    8.7710   27.8320 C.3       1 LIG        -0.1200 
      4 C04        80.4910    7.8630   26.9150 C.3       1 LIG        -0.1200 
      5 C05        81.0330    6.6590   27.6580 C.3       1 LIG        -0.1200 
      6 C06        79.9970    5.9440   28.4670 C.3       1 LIG        -0.0900 
      7 N07        79.2190    6.8560   29.2340 N.am      1 LIG        -0.1400 
      8 C08        78.9240    6.7150   30.6490 C.2       1 LIG         0.5000 
      9 O09        78.2490    7.5910   31.1600 O.2       1 LIG        -0.5000 
     10 C10        79.3740    5.6000   31.5390 C.3       1 LIG        -0.1200 
     11 C11        79.6960    5.9550   32.9530 C.3       1 LIG         0.0600 
     12 S12        80.7500    4.8300   33.8170 S.3       1 LIG        -0.3350 
     13 C13        79.2240    4.9870   27.6060 C.2       1 LIG         0.7000 
     14 O14        79.5640    4.8490   26.3960 O.co2     1 LIG        -0.8000 
     15 O15        78.2320    4.3340   28.0800 O.co2     1 LIG        -0.8000 
     16 H011       76.7808    7.1631   28.3265 H         1 LIG         0.0600 
     17 H012       77.0478    8.6027   27.3402 H         1 LIG         0.0600 
     18 H013       77.7654    7.1014   26.8805 H         1 LIG         0.0600 
     19 H02        78.3239    8.7931   29.2891 H         1 LIG         0.0600 
     20 H031       80.3978    9.2552   28.5221 H         1 LIG         0.0600 
     21 H032       79.2432    9.5730   27.2574 H         1 LIG         0.0600 
     22 H041       81.3134    8.4198   26.4650 H         1 LIG         0.0600 
     23 H042       79.8675    7.5384   26.0816 H         1 LIG         0.0600 
     24 H051       81.7890    7.0260   28.3540 H         1 LIG         0.0600 
     25 H052       81.5950    6.0055   26.9885 H         1 LIG         0.0600 
     26 H06        80.5687    5.2869   29.1144 H         1 LIG         0.0600 
     27 H101       80.2792    5.1618   31.1303 H         1 LIG         0.0600 
     28 H102       78.6230    4.8094   31.5138 H         1 LIG         0.0600 
     29 H111       78.7723    6.0580   33.5233 H         1 LIG         0.0600 
     30 H112       80.1859    6.9292   32.9918 H         1 LIG         0.0600 
     31 HS12       80.7303    5.4866   34.9807 H         1 LIG         0.1550 
@<TRIPOS>BOND
     1    1    2 1    
     2    1   16 1    
     3    1   17 1    
     4    1   18 1    
     5    2    3 1    
     6    2    7 1    
     7    2   19 1    
     8    3    4 1    
     9    3   20 1    
    10    3   21 1    
    11    4    5 1    
    12    4   22 1    
    13    4   23 1    
    14    5    6 1    
    15    5   24 1    
    16    5   25 1    
    17    6    7 1    
    18    6   13 1    
    19    6   26 1    
    20    7    8 am   BACKBONE|DICT|INTERRES
    21    8    9 2    
    22    8   10 1    
    23   10   11 1    
    24   10   27 1    
    25   10   28 1    
    26   11   12 1    
    27   11   29 1    
    28   11   30 1    
    29   12   31 1    
    30   13   14 2    
    31   13   15 1    
@<TRIPOS>SUBSTRUCTURE
     1 LIG         1 GROUP             0       ****    0 ROOT    
