@<TRIPOS>MOLECULE
:2xdl_ligand
33   33    1
SMALL
USER_CHARGES


@<TRIPOS>ATOM
      1 C1         64.9910   33.1470   27.7090 C.ar      1 LIG         0.1500 
      2 C2         66.0820   33.4500   26.8880 C.ar      1 LIG         0.0850 
      3 C3         65.8810   34.1640   25.7290 C.ar      1 LIG        -0.1150 
      4 C4         64.6130   34.5720   25.3420 C.ar      1 LIG        -0.1150 
      5 C5         63.5170   34.2650   26.1560 C.ar      1 LIG        -0.1150 
      6 C6         63.7040   33.5570   27.3290 C.ar      1 LIG        -0.1150 
      7 O7         65.1940   32.4660   28.8720 O.3       1 LIG        -0.5850 
      8 C9         65.1120   38.5490   25.2530 C.3       1 LIG        -0.1800 
      9 C10        65.7340   37.1830   25.0660 C.3       1 LIG        -0.0500 
     10 C12        65.2710   37.1500   22.6150 C.3       1 LIG        -0.0500 
     11 C13        66.7140   37.4160   22.2250 C.3       1 LIG        -0.1800 
     12 C14        64.4420   35.3230   24.0650 C.2       1 LIG         0.6150 
     13 O15        63.7100   34.8850   23.2070 O.2       1 LIG        -0.5000 
     14 O16        67.3140   33.0280   27.3160 O.3       1 LIG        -0.2850 
     15 N3         65.1750   36.4640   23.9030 N.am      1 LIG        -0.1400 
     16 C15        68.4560   33.8620   26.9850 C.3       1 LIG         0.1100 
     17 H3         66.7118   34.3966   25.0803 H         1 LIG         0.1150 
     18 H5         62.5212   34.5765   25.8739 H         1 LIG         0.1150 
     19 H6         62.8552   33.3273   27.9568 H         1 LIG         0.1150 
     20 HO7        66.0686   32.1119   28.9219 H         1 LIG         0.4350 
     21 H91        65.4989   39.0136   26.1605 H         1 LIG         0.0600 
     22 H92        65.3441   39.2280   24.4338 H         1 LIG         0.0600 
     23 H93        64.0395   38.5089   25.3637 H         1 LIG         0.0600 
     24 H101       65.6087   36.6894   26.0268 H         1 LIG         0.0600 
     25 H102       66.8129   37.2796   24.9421 H         1 LIG         0.0600 
     26 H121       64.8260   36.5534   21.8202 H         1 LIG         0.0600 
     27 H122       64.6927   38.0734   22.6200 H         1 LIG         0.0600 
     28 H131       66.7996   37.6269   21.1585 H         1 LIG         0.0600 
     29 H132       67.1099   38.2808   22.7574 H         1 LIG         0.0600 
     30 H133       67.3639   36.5750   22.4640 H         1 LIG         0.0600 
     31 H151       69.3679   33.4526   27.4142 H         1 LIG         0.0300 
     32 H152       68.6071   33.8864   25.9114 H         1 LIG         0.0300 
     33 H153       68.3254   34.8808   27.3521 H         1 LIG         0.0300 
@<TRIPOS>BOND
     1    1    2 ar   
     2    1    6 ar   
     3    1    7 1    
     4    2    3 ar   
     5    2   14 1    
     6    3    4 ar   
     7    3   17 1    
     8    4    5 ar   
     9    4   12 1    
    10    5    6 ar   
    11    5   18 1    
    12    6   19 1    
    13    7   20 1    
    14    8    9 1    
    15    8   21 1    
    16    8   22 1    
    17    8   23 1    
    18    9   15 1    
    19    9   24 1    
    20    9   25 1    
    21   10   11 1    
    22   10   15 1    
    23   10   26 1    
    24   10   27 1    
    25   11   28 1    
    26   11   29 1    
    27   11   30 1    
    28   12   13 2    
    29   12   15 am   BACKBONE|DICT|INTERRES
    30   14   16 1    
    31   16   31 1    
    32   16   32 1    
    33   16   33 1    
@<TRIPOS>SUBSTRUCTURE
     1 LIG         1 GROUP             0       ****    0 ROOT    
