@<TRIPOS>MOLECULE
:3gy4_ligand
20   20    1
SMALL
USER_CHARGES


@<TRIPOS>ATOM
      1 N2         -2.8520   13.9410   14.0880 N.pl3     1 LIG        -0.8850 
      2 N3         -1.7170   12.1590   14.9580 N.pl3     1 LIG        -0.8850 
      3 C7         -2.1180   13.4280   15.0660 C.2       1 LIG         0.8270 
      4 C4         -1.7750   14.2680   16.2680 C.ar      1 LIG        -0.1190 
      5 C2         -1.0460   14.4040   18.5710 C.ar      1 LIG        -0.1060 
      6 C3         -1.3480   13.6480   17.4430 C.ar      1 LIG        -0.0900 
      7 C5         -1.8870   15.6600   16.2240 C.ar      1 LIG        -0.0900 
      8 C6         -1.5760   16.4150   17.3610 C.ar      1 LIG        -0.1060 
      9 C1         -1.1650   15.7870   18.5320 C.ar      1 LIG         0.3320 
     10 N1         -0.8600   16.5180   19.6370 N.pl3     1 LIG        -0.9200 
     11 H21        -3.2081   14.8869   14.1566 H         1 LIG         0.4455 
     12 H22        -3.1870   13.3349   13.3419 H         1 LIG         0.4455 
     13 H31        -1.0844   11.7663   15.6454 H         1 LIG         0.4455 
     14 H32        -2.1029   11.5634   14.2313 H         1 LIG         0.4455 
     15 H2         -0.7285   13.9078   19.4759 H         1 LIG         0.1410 
     16 H3         -1.2624   12.5737   17.5074 H         1 LIG         0.1290 
     17 H5         -2.1778   16.1749   15.3235 H         1 LIG         0.1290 
     18 H6         -1.6556   17.4915   17.3192 H         1 LIG         0.1410 
     19 H11        -0.8866   17.5275   19.6276 H         1 LIG         0.3600 
     20 H12        -0.5523   16.0813   20.4958 H         1 LIG         0.3600 
@<TRIPOS>BOND
     1    1    3 2    
     2    1   11 1    
     3    1   12 1    
     4    2    3 1    
     5    2   13 1    
     6    2   14 1    
     7    3    4 1    
     8    4    6 ar   
     9    4    7 ar   
    10    5    6 ar   
    11    5    9 ar   
    12    5   15 1    
    13    6   16 1    
    14    7    8 ar   
    15    7   17 1    
    16    8    9 ar   
    17    8   18 1    
    18    9   10 1    
    19   10   19 1    
    20   10   20 1    
@<TRIPOS>SUBSTRUCTURE
     1 LIG         1 GROUP             0       ****    0 ROOT    
