@<TRIPOS>MOLECULE
:1sqa_ligand
54   57    1
SMALL
USER_CHARGES


@<TRIPOS>ATOM
      1 N1         29.5520   11.8530   28.7170 N.4       1 LIG        -0.3000 
      2 C2         28.3300   11.0730   28.8590 C.3       1 LIG         0.3050 
      3 C3         27.2630   11.8440   29.6510 C.ar      1 LIG        -0.1150 
      4 C4         26.5790   12.9060   29.0380 C.ar      1 LIG        -0.1150 
      5 C5         25.6020   13.6060   29.7610 C.ar      1 LIG        -0.1150 
      6 C6         25.2850   13.2590   31.1110 C.ar      1 LIG         0.0850 
      7 N7         24.2440   14.0730   31.6860 N.am      1 LIG        -0.3850 
      8 C8         24.5160   14.9930   32.5920 C.2       1 LIG         0.6150 
      9 O9         25.6530   15.1500   33.0210 O.2       1 LIG        -0.5000 
     10 C10        23.4180   15.9110   33.0260 C.ar      1 LIG        -0.1150 
     11 C11        23.7630   16.9690   33.8980 C.ar      1 LIG        -0.1150 
     12 C12        22.8180   17.8960   34.2740 C.ar      1 LIG         0.2000 
     13 N13        23.2180   18.9970   35.1110 N.pl3     1 LIG        -0.7043 
     14 C14        23.7200   18.8390   36.4290 C.ar      1 LIG         0.9663 
     15 N15        24.1540   19.9420   37.0850 N.ar      1 LIG        -0.8390 
     16 C16        24.6250   19.8550   38.3490 C.ar      1 LIG         0.6530 
     17 C17        24.6580   18.6020   38.9980 C.ar      1 LIG        -0.6890 
     18 C18        24.2060   17.4800   38.2880 C.ar      1 LIG         0.6530 
     19 N19        23.7470   17.6250   37.0220 N.ar      1 LIG        -0.8390 
     20 C20        21.4730   17.7830   33.7830 C.ar      1 LIG         0.0680 
     21 C21        20.5150   18.7550   34.1600 C.ar      1 LIG        -0.0900 
     22 C22        19.1860   18.6620   33.6930 C.ar      1 LIG        -0.1190 
     23 C23        18.8010   17.5980   32.8540 C.ar      1 LIG        -0.0900 
     24 C24        19.7560   16.6250   32.4690 C.ar      1 LIG        -0.1060 
     25 C25        21.1010   16.7220   32.9310 C.ar      1 LIG         0.0990 
     26 C26        22.0770   15.7770   32.5410 C.ar      1 LIG        -0.1150 
     27 C27        18.2380   19.7150   34.1260 C.2       1 LIG         0.8270 
     28 N28        18.6560   20.6930   34.8790 N.pl3     1 LIG        -0.8850 
     29 N29        16.9650   19.6770   33.7560 N.pl3     1 LIG        -0.8850 
     30 C30        25.9580   12.1980   31.7280 C.ar      1 LIG        -0.1150 
     31 C31        26.9590   11.4880   30.9910 C.ar      1 LIG        -0.1150 
     32 H11        30.2308   11.3045   28.2057 H         1 LIG         0.3300 
     33 H12        29.3530   12.7042   28.2118 H         1 LIG         0.3300 
     34 H13        29.9179   12.0762   29.6310 H         1 LIG         0.3300 
     35 H21        28.5617   10.1300   29.3557 H         1 LIG         0.0600 
     36 H22        27.9422   10.8245   27.8700 H         1 LIG         0.0600 
     37 H4         26.7933   13.1801   28.0155 H         1 LIG         0.1150 
     38 H5         25.0765   14.4157   29.2748 H         1 LIG         0.1150 
     39 HN7        23.3332   14.0619   31.2513 H         1 LIG         0.3000 
     40 H11        24.7750   17.0835   34.2603 H         1 LIG         0.1150 
     41 HN13       22.9026   19.9263   34.8716 H         1 LIG         0.3800 
     42 H16        24.9569   20.7625   38.8310 H         1 LIG         0.0110 
     43 H17        25.0222   18.5082   40.0104 H         1 LIG         0.1970 
     44 H18        24.2054   16.4978   38.7330 H         1 LIG         0.0110 
     45 H21        20.8115   19.5358   34.8245 H         1 LIG         0.1290 
     46 H23        17.7883   17.5098   32.4885 H         1 LIG         0.1290 
     47 H24        19.4629   15.8170   31.8151 H         1 LIG         0.1410 
     48 H26        21.8083   14.9857   31.8603 H         1 LIG         0.1150 
     49 H281       17.9711   21.3115   35.3112 H         1 LIG         0.4455 
     50 H282       19.6320   20.7801   35.1304 H         1 LIG         0.4455 
     51 H291       16.3181   20.3667   34.1233 H         1 LIG         0.4455 
     52 H292       16.6015   18.8740   33.2622 H         1 LIG         0.4455 
     53 H30        25.7262   11.9191   32.7454 H         1 LIG         0.1150 
     54 H31        27.4802   10.6684   31.4635 H         1 LIG         0.1150 
@<TRIPOS>BOND
     1    1    2 1    
     2    1   32 1    
     3    1   33 1    
     4    1   34 1    
     5    2    3 1    
     6    2   35 1    
     7    2   36 1    
     8    3    4 ar   
     9    3   31 ar   
    10    4    5 ar   
    11    4   37 1    
    12    5    6 ar   
    13    5   38 1    
    14    6    7 1    
    15    6   30 ar   
    16    7    8 am   BACKBONE|DICT|INTERRES
    17    7   39 1    
    18    8    9 2    
    19    8   10 1    
    20   10   11 ar   
    21   10   26 ar   
    22   11   12 ar   
    23   11   40 1    
    24   12   13 1    
    25   12   20 ar   
    26   13   14 1    
    27   13   41 1    
    28   14   15 ar   
    29   14   19 ar   
    30   15   16 ar   
    31   16   17 ar   
    32   16   42 1    
    33   17   18 ar   
    34   17   43 1    
    35   18   19 ar   
    36   18   44 1    
    37   20   21 ar   
    38   20   25 ar   
    39   21   22 ar   
    40   21   45 1    
    41   22   23 ar   
    42   22   27 1    
    43   23   24 ar   
    44   23   46 1    
    45   24   25 ar   
    46   24   47 1    
    47   25   26 ar   
    48   26   48 1    
    49   27   28 2    
    50   27   29 1    
    51   28   49 1    
    52   28   50 1    
    53   29   51 1    
    54   29   52 1    
    55   30   31 ar   
    56   30   53 1    
    57   31   54 1    
@<TRIPOS>SUBSTRUCTURE
     1 LIG         1 GROUP             0       ****    0 ROOT    
