@<TRIPOS>MOLECULE
:3bv9_ligand
97   100    1
SMALL
USER_CHARGES


@<TRIPOS>ATOM
      1 N          11.7390   16.6600   12.2050 N.4       1 LIG        -0.3000 
      2 CA         12.2190   17.8200   12.6330 C.3       1 LIG         0.2500 
      3 CB         12.3040   18.9690   11.5750 C.3       1 LIG        -0.1200 
      4 CG         10.9970   19.6800   11.3960 C.2       1 LIG        -0.1150 
      5 CD          9.6910   19.2600   11.0360 C.2       1 LIG         0.1263 
      6 NE          9.3830   17.7860   11.0730 N.pl3     1 LIG        -0.5075 
      7 CZ          8.3930   17.1820   10.5640 C.2       1 LIG         0.3990 
      8 NH1         7.4410   17.8480    9.8840 N.2       1 LIG        -0.7850 
      9 NH2         8.3300   15.8920   10.7060 N.pl3     1 LIG        -0.7850 
     10 C          13.6600   17.6060   13.1490 C.2       1 LIG         0.5000 
     11 O          14.3910   16.7870   12.4920 O.2       1 LIG        -0.5000 
     12 N          14.1550   18.2360   14.3540 N.am      1 LIG        -0.1400 
     13 CA         15.6290   18.3080   14.6410 C.3       1 LIG         0.0100 
     14 C          15.6680   16.7870   15.0130 C.2       1 LIG         0.5000 
     15 O          14.8150   16.0880   15.6440 O.2       1 LIG        -0.5000 
     16 CB         15.6620   19.0960   15.8740 C.3       1 LIG        -0.1200 
     17 CG         14.8480   20.2470   15.4020 C.3       1 LIG        -0.0600 
     18 CD         13.5950   19.5530   14.8370 C.3       1 LIG         0.0100 
     19 C4         14.4890   21.3810   16.4020 C.3       1 LIG        -0.1200 
     20 C5         13.5320   20.8730   17.5160 C.3       1 LIG        -0.1200 
     21 C6         12.2250   20.3500   16.8910 C.3       1 LIG        -0.1200 
     22 C7         12.5250   19.1880   15.9230 C.3       1 LIG        -0.1200 
     23 N          16.8510   15.9920   14.5970 N.am      1 LIG        -0.1400 
     24 CA         17.1570   14.5490   14.8280 C.3       1 LIG         0.0100 
     25 C          17.1490   14.3330   16.3830 C.2       1 LIG         0.5000 
     26 O          17.8260   15.0210   17.1960 O.2       1 LIG        -0.5000 
     27 CB         18.4610   14.3690   14.2000 C.3       1 LIG        -0.1200 
     28 CG         19.0920   15.6380   13.8150 C.3       1 LIG        -0.1200 
     29 CD         17.9600   16.6050   13.8440 C.3       1 LIG        -0.0500 
     30 N          16.2500   13.3460   16.6600 N.am      1 LIG        -0.5000 
     31 CA         15.8490   12.8330   17.9400 C.3       1 LIG         0.1400 
     32 CB         16.1530   11.3590   18.2000 C.3       1 LIG        -0.1800 
     33 C          15.0450   13.5100   19.0040 C.2       1 LIG         0.5000 
     34 O          15.1260   13.0390   20.2120 O.2       1 LIG        -0.5000 
     35 C1         13.4320   15.2750   19.3650 C.3       1 LIG         0.1400 
     36 C3         13.0520   16.3840   18.5050 C.3       1 LIG        -0.0050 
     37 C4         12.0920   17.2960   19.1710 C.ar      1 LIG        -0.1150 
     38 C5         10.5440   17.2540   18.9290 C.ar      1 LIG        -0.1150 
     39 C6         12.6250   18.3470   20.1420 C.ar      1 LIG        -0.1150 
     40 C7          9.5950   18.1810   19.5890 C.ar      1 LIG        -0.1150 
     41 C8         11.6520   19.3360   20.8520 C.ar      1 LIG        -0.1150 
     42 C9         10.1340   19.2290   20.5490 C.ar      1 LIG        -0.1150 
     43 C32        12.3320   14.2920   19.7620 C.2       1 LIG         0.5000 
     44 C33         9.1640   20.2120   21.2250 C.3       1 LIG        -0.0650 
     45 O5         11.7600   13.4910   18.9690 O.2       1 LIG        -0.5000 
     46 N3         14.3250   14.4920   18.5440 N.am      1 LIG        -0.5000 
     47 O          11.9481   14.2781   21.0353 N.am      1 LIG        -0.7600 
     48 H1         11.2533   16.1765   12.9489 H         1 LIG         0.3300 
     49 H2         11.1639   16.7784   11.3853 H         1 LIG         0.3300 
     50 H3         12.5367   16.0974   11.9375 H         1 LIG         0.3300 
     51 HA         11.5803   18.1374   13.4527 H         1 LIG         0.0600 
     52 HB1        12.6236   18.5822   10.6144 H         1 LIG         0.0600 
     53 HB2        13.0418   19.7233   11.8516 H         1 LIG         0.0600 
     54 HG         11.1092   20.7518   11.4631 H         1 LIG         0.1150 
     55 HD          8.8657   19.9219   10.8190 H         1 LIG        -0.0038 
     56 HNE         9.9556   17.2761   11.7168 H         1 LIG         0.4100 
     57 HNH1        6.7478   17.2010    9.5217 H         1 LIG         0.4260 
     58 HH21        7.6531   15.3220   10.2039 H         1 LIG         0.3600 
     59 HH22        9.0149   15.3207   11.1816 H         1 LIG         0.3600 
     60 HA         16.2324   18.6459   13.7968 H         1 LIG         0.0600 
     61 HB1        16.6762   19.3956   16.1364 H         1 LIG         0.0600 
     62 HB2        15.2212   18.6033   16.7432 H         1 LIG         0.0600 
     63 HG         15.3792   20.7302   14.5781 H         1 LIG         0.0600 
     64 HD         13.1520   20.1628   14.0504 H         1 LIG         0.0600 
     65 H41        14.0067   22.1954   15.8679 H         1 LIG         0.0600 
     66 H42        15.3974   21.7929   16.8428 H         1 LIG         0.0600 
     67 H51        13.3092   21.6887   18.2042 H         1 LIG         0.0600 
     68 H52        14.0109   20.0946   18.1101 H         1 LIG         0.0600 
     69 H61        11.7230   21.1565   16.3545 H         1 LIG         0.0600 
     70 H62        11.5388   20.0213   17.6719 H         1 LIG         0.0600 
     71 H71        12.8743   18.3435   16.5145 H         1 LIG         0.0600 
     72 H72        11.5919   18.8608   15.4693 H         1 LIG         0.0600 
     73 HA         16.3991   13.9418   14.3279 H         1 LIG         0.0600 
     74 HB1        18.3117   13.7867   13.2891 H         1 LIG         0.0600 
     75 HB2        19.1392   13.7699   14.8104 H         1 LIG         0.0600 
     76 HG1        19.6099   15.5878   12.8592 H         1 LIG         0.0600 
     77 HG2        19.8263   15.9194   14.5712 H         1 LIG         0.0600 
     78 HD1        18.2749   17.5352   14.3120 H         1 LIG         0.0600 
     79 HD2        17.6066   16.8322   12.8407 H         1 LIG         0.0600 
     80 HN         15.7918   12.9236   15.8658 H         1 LIG         0.3000 
     81 HA         16.7565   13.1514   18.4579 H         1 LIG         0.0600 
     82 HB1        16.0827   11.0479   19.2423 H         1 LIG         0.0600 
     83 HB2        15.4649   10.7316   17.6333 H         1 LIG         0.0600 
     84 HB3        17.1606   11.1036   17.8679 H         1 LIG         0.0600 
     85 H1         13.9606   15.6391   20.2491 H         1 LIG         0.0600 
     86 H31        12.5918   16.0295   17.5804 H         1 LIG         0.0600 
     87 H32        13.9301   16.9642   18.2150 H         1 LIG         0.0600 
     88 H5         10.1484   16.5211   18.2418 H         1 LIG         0.1150 
     89 H6         13.6854   18.4132   20.3370 H         1 LIG         0.1150 
     90 H7          8.5497   18.1495   19.3450 H         1 LIG         0.1150 
     91 H8         12.0234   20.0782   21.5409 H         1 LIG         0.1150 
     92 H331        9.6931   21.0901   21.5957 H         1 LIG         0.0600 
     93 H332        8.4032   20.5439   20.5172 H         1 LIG         0.0600 
     94 H333        8.6687   19.7242   22.0645 H         1 LIG         0.0600 
     95 HN3        14.3902   14.7229   17.5627 H         1 LIG         0.3000 
     96 H1         11.2209   13.6412   21.3264 H         1 LIG         0.3800 
     97 H2         12.3797   14.9007   21.7023 H         1 LIG         0.3800 
@<TRIPOS>BOND
     1    1    2 1    
     2    1   48 1    
     3    1   49 1    
     4    1   50 1    
     5    2    3 1    
     6    2   10 1    
     7    2   51 1    
     8    3    4 1    
     9    3   52 1    
    10    3   53 1    
    11    4    5 2    
    12    4   54 1    
    13    5    6 1    
    14    5   55 1    
    15    6    7 1    
    16    6   56 1    
    17    7    8 2    
    18    7    9 1    
    19    8   57 1    
    20    9   58 1    
    21    9   59 1    
    22   10   11 2    
    23   10   12 am   BACKBONE|DICT|INTERRES
    24   12   13 1    
    25   12   18 1    
    26   13   14 1    
    27   13   16 1    
    28   13   60 1    
    29   14   15 2    
    30   14   23 am   BACKBONE|DICT|INTERRES
    31   16   17 1    
    32   16   61 1    
    33   16   62 1    
    34   17   18 1    
    35   17   19 1    
    36   17   63 1    
    37   18   22 1    
    38   18   64 1    
    39   19   20 1    
    40   19   65 1    
    41   19   66 1    
    42   20   21 1    
    43   20   67 1    
    44   20   68 1    
    45   21   22 1    
    46   21   69 1    
    47   21   70 1    
    48   22   71 1    
    49   22   72 1    
    50   23   24 1    
    51   23   29 1    
    52   24   25 1    
    53   24   27 1    
    54   24   73 1    
    55   25   26 2    
    56   25   30 am   BACKBONE|DICT|INTERRES
    57   27   28 1    
    58   27   74 1    
    59   27   75 1    
    60   28   29 1    
    61   28   76 1    
    62   28   77 1    
    63   29   78 1    
    64   29   79 1    
    65   30   31 1    
    66   30   80 1    
    67   31   32 1    
    68   31   33 1    
    69   31   81 1    
    70   32   82 1    
    71   32   83 1    
    72   32   84 1    
    73   33   34 2    
    74   33   46 am   BACKBONE|DICT|INTERRES
    75   35   36 1    
    76   35   43 1    
    77   35   46 1    
    78   35   85 1    
    79   36   37 1    
    80   36   86 1    
    81   36   87 1    
    82   37   38 ar   
    83   37   39 ar   
    84   38   40 ar   
    85   38   88 1    
    86   39   41 ar   
    87   39   89 1    
    88   40   42 ar   
    89   40   90 1    
    90   41   42 ar   
    91   41   91 1    
    92   42   44 1    
    93   43   45 2    
    94   43   47 am   BACKBONE|DICT|INTERRES
    95   44   92 1    
    96   44   93 1    
    97   44   94 1    
    98   46   95 1    
    99   47   96 1    
   100   47   97 1    
@<TRIPOS>SUBSTRUCTURE
     1 LIG         1 GROUP             0       ****    0 ROOT    
