@<TRIPOS>MOLECULE
:3ag9_ligand
140   142    1
SMALL
USER_CHARGES


@<TRIPOS>ATOM
      1 N1          8.1330    4.1030   17.1980 N.ar      1 LIG        -0.5300 
      2 C2          7.3260    4.7630   16.3560 C.ar      1 LIG         0.2200 
      3 N3          7.7330    5.1070   15.1410 N.ar      1 LIG        -0.5500 
      4 C4          8.9690    4.7920   14.7230 C.ar      1 LIG         0.3800 
      5 C5          9.8310    4.1170   15.5770 C.ar      1 LIG         0.1500 
      6 C6          9.3850    3.7730   16.8420 C.ar      1 LIG         0.4400 
      7 N6         10.1900    3.1300   17.6810 N.pl3     1 LIG        -0.8100 
      8 N7         10.9870    3.9300   14.9430 N.2       1 LIG        -0.4900 
      9 C8         10.8470    4.4670   13.7260 C.ar      1 LIG         0.2000 
     10 N9          9.6260    5.0080   13.5880 N.pl3     1 LIG        -0.5000 
     11 OAL        11.5190    4.3030   10.5370 O.2       1 LIG        -0.5000 
     12 OAN         8.3910    7.5990   10.2280 O.3       1 LIG        -0.6830 
     13 OAO         9.7350    8.0680   12.4790 O.3       1 LIG        -0.6830 
     14 OBV         8.9100    4.8170   11.2340 O.3       1 LIG        -0.4000 
     15 CCC        10.8260    4.8240    9.6510 C.2       1 LIG         0.5000 
     16 CCK         9.6510    6.9150   10.3730 C.3       1 LIG         0.2050 
     17 CCL        10.0240    6.8320   11.8420 C.3       1 LIG         0.2050 
     18 CCM         9.4640    5.4380   10.0260 C.3       1 LIG         0.1700 
     19 CCN         9.0810    5.7280   12.3590 C.3       1 LIG         0.4500 
     20 CBZ        16.3250    1.5850    5.8220 C.2       1 LIG         0.5000 
     21 OAI        15.9480    1.3040    4.6780 O.2       1 LIG        -0.5000 
     22 CBG        15.7840    0.8100    7.0410 C.3       1 LIG        -0.1200 
     23 CAX        14.2840    1.0790    7.2730 C.3       1 LIG        -0.1200 
     24 CAU        13.9760    2.5800    7.2340 C.3       1 LIG        -0.1200 
     25 CAW        12.5930    2.9190    7.7970 C.3       1 LIG        -0.1200 
     26 CBD        12.4690    4.4440    7.8270 C.3       1 LIG         0.0800 
     27 NBR        11.1750    4.8980    8.3660 N.am      1 LIG        -0.5000 
     28 NBS        17.1720    2.5850    6.1140 N.am      1 LIG        -0.5000 
     29 CCI        17.7880    3.4240    5.0540 C.3       1 LIG         0.1400 
     30 CCB        16.7230    4.3270    4.3850 C.2       1 LIG         0.5000 
     31 OAK        15.7310    4.6850    5.0080 O.2       1 LIG        -0.5000 
     32 CBJ        19.0060    4.2140    5.5840 C.3       1 LIG        -0.1200 
     33 CAZ        18.6760    5.3540    6.5530 C.3       1 LIG        -0.1200 
     34 CAS        19.9630    6.1100    6.9450 C.3       1 LIG        -0.1200 
     35 CAR        19.8140    6.7850    8.3170 C.3       1 LIG         0.1900 
     36 NAC        20.2100    8.2020    8.2270 N.4       1 LIG        -0.3000 
     37 CCA        16.3330   11.1550    1.4080 C.2       1 LIG         0.5000 
     38 OAJ        17.5310   11.4240    1.2740 O.2       1 LIG        -0.5000 
     39 CBH        15.6390   10.1580    0.4650 C.3       1 LIG        -0.1200 
     40 CAY        16.3530    8.7960    0.4520 C.3       1 LIG        -0.1200 
     41 CAT        15.6320    7.7690    1.3310 C.3       1 LIG        -0.1200 
     42 CAV        16.6190    6.8800    2.0970 C.3       1 LIG        -0.1200 
     43 CBC        16.0230    5.4860    2.3230 C.3       1 LIG         0.0800 
     44 NBQ        16.9520    4.6450    3.1120 N.am      1 LIG        -0.5000 
     45 NBT        15.5410   11.6900    2.3450 N.am      1 LIG        -0.5000 
     46 CCJ        16.0220   12.6680    3.3520 C.3       1 LIG         0.1400 
     47 CBK        14.9850   12.8640    4.4900 C.3       1 LIG        -0.1200 
     48 CBB        13.5280   12.5910    4.0780 C.3       1 LIG        -0.0500 
     49 CBF        12.9210   13.7540    3.2770 C.3       1 LIG         0.1900 
     50 NBP        12.7560   13.3160    1.8780 N.pl3     1 LIG        -0.7000 
     51 CBX        12.4380   14.1360    0.8670 C.cat     1 LIG         0.6399 
     52 NAB        12.2550   15.4440    1.0400 N.pl3     1 LIG        -0.8000 
     53 NAE        12.3120   13.6200   -0.3520 N.pl3     1 LIG        -0.8000 
     54 CCD        16.3700   14.0160    2.6750 C.2       1 LIG         0.5000 
     55 OAM        16.2800   14.1540    1.4550 O.2       1 LIG        -0.5000 
     56 N          16.7690   14.9850    3.5020 N.am      1 LIG        -0.5000 
     57 CA         17.1480   16.3410    3.0460 C.3       1 LIG         0.1400 
     58 CB         17.8410   17.0950    4.1880 C.3       1 LIG        -0.1200 
     59 CG         17.0880   16.9250    5.5090 C.3       1 LIG        -0.0500 
     60 CD         18.0520   16.7450    6.6770 C.3       1 LIG         0.1900 
     61 NE         18.3430   18.0710    7.2130 N.pl3     1 LIG        -0.7000 
     62 CZ         17.8120   18.5840    8.3220 C.cat     1 LIG         0.6399 
     63 NH1        16.9670   17.9090    9.1010 N.pl3     1 LIG        -0.8000 
     64 NH2        18.1780   19.8160    8.6480 N.pl3     1 LIG        -0.8000 
     65 C          15.9170   17.1400    2.5600 C.2       1 LIG         0.5000 
     66 O          14.8180   17.0370    3.1090 O.2       1 LIG        -0.5000 
     67 NAF        16.1500   17.9510    1.5300 N.am      1 LIG        -0.7600 
     68 H2          6.3188    5.0024   16.6540 H         1 LIG         0.2000 
     69 H61        11.1324    2.9083   17.3948 H         1 LIG         0.3700 
     70 H62         9.8566    2.8551   18.5967 H         1 LIG         0.3700 
     71 H8         11.6356    4.4765   12.9925 H         1 LIG         0.2000 
     72 HOAN        8.4599    8.4372   10.6614 H         1 LIG         0.4180 
     73 HOAO       10.3235    8.7288   12.1433 H         1 LIG         0.4180 
     74 HCK        10.4106    7.4239    9.7768 H         1 LIG         0.0600 
     75 HCL        11.0696    6.5561   11.9772 H         1 LIG         0.0600 
     76 HCM         8.7568    5.3537    9.2160 H         1 LIG         0.0300 
     77 HCN         8.0996    6.1086   12.6482 H         1 LIG         0.1000 
     78 HBG1       16.3519    1.0779    7.9333 H         1 LIG         0.0600 
     79 HBG2       15.9486   -0.2550    6.8785 H         1 LIG         0.0600 
     80 HAX1       13.9840    0.6488    8.2288 H         1 LIG         0.0600 
     81 HAX2       13.6938    0.5836    6.5085 H         1 LIG         0.0600 
     82 HAU1       14.0557    2.9878    6.2323 H         1 LIG         0.0600 
     83 HAU2       14.7247    3.1008    7.8335 H         1 LIG         0.0600 
     84 HAW1       12.5012    2.5136    8.8025 H         1 LIG         0.0600 
     85 HAW2       11.8056    2.4731    7.1875 H         1 LIG         0.0600 
     86 HBD1       12.5682    4.8452    6.8175 H         1 LIG         0.0600 
     87 HBD2       13.2737    4.8858    8.4175 H         1 LIG         0.0600 
     88 HNBR       10.5364    5.3377    7.7190 H         1 LIG         0.3000 
     89 HNBS       17.4111    2.7755    7.0760 H         1 LIG         0.3000 
     90 HCI        18.1580    2.7479    4.2824 H         1 LIG         0.0600 
     91 HBJ1       19.5441    4.6287    4.7303 H         1 LIG         0.0600 
     92 HBJ2       19.6998    3.5188    6.0589 H         1 LIG         0.0600 
     93 HAZ1       18.2062    4.9211    7.4376 H         1 LIG         0.0600 
     94 HAZ2       17.9601    6.0598    6.1315 H         1 LIG         0.0600 
     95 HAS1       20.2127    6.8247    6.1592 H         1 LIG         0.0600 
     96 HAS2       20.8063    5.4198    6.9993 H         1 LIG         0.0600 
     97 HAR1       20.4232    6.2804    9.0685 H         1 LIG         0.0600 
     98 HAR2       18.7831    6.7611    8.6705 H         1 LIG         0.0600 
     99 HAC1       20.1780    8.6014    9.1589 H         1 LIG         0.3300 
    100 HAC2       21.1594    8.2574    7.8876 H         1 LIG         0.3300 
    101 HAC3       19.5892    8.6894    7.6001 H         1 LIG         0.3300 
    102 HBH1       15.6931   10.5923   -0.5339 H         1 LIG         0.0600 
    103 HBH2       14.5753   10.0602    0.6879 H         1 LIG         0.0600 
    104 HAY1       17.3953    8.9033    0.7571 H         1 LIG         0.0600 
    105 HAY2       16.3968    8.4156   -0.5693 H         1 LIG         0.0600 
    106 HAT1       14.9775    7.1709    0.6952 H         1 LIG         0.0600 
    107 HAT2       14.9799    8.2540    2.0587 H         1 LIG         0.0600 
    108 HAV1       16.8885    7.3507    3.0435 H         1 LIG         0.0600 
    109 HAV2       17.5448    6.7612    1.5320 H         1 LIG         0.0600 
    110 HBC1       15.8609    4.9919    1.3645 H         1 LIG         0.0600 
    111 HBC2       15.0402    5.5645    2.7913 H         1 LIG         0.0600 
    112 HNBQ       17.7732    4.2797    2.6498 H         1 LIG         0.3000 
    113 HNBT       14.5757   11.4046    2.3897 H         1 LIG         0.3000 
    114 HCJ        16.9472   12.2912    3.7925 H         1 LIG         0.0600 
    115 HBK1       15.0647   13.8265    4.9969 H         1 LIG         0.0600 
    116 HBK2       15.2290   12.1351    5.2638 H         1 LIG         0.0600 
    117 HBB1       12.9507   12.5087    5.0000 H         1 LIG         0.0600 
    118 HBB2       13.3864   11.6216    3.5996 H         1 LIG         0.0600 
    119 HBF1       13.5341   14.6530    3.3345 H         1 LIG         0.0600 
    120 HBF2       11.9364   14.0108    3.6692 H         1 LIG         0.0600 
    121 HNBP       12.8323   12.3266    1.6971 H         1 LIG         0.4400 
    122 HAB1       12.3920   15.8553    1.9528 H         1 LIG         0.4600 
    123 HAB2       12.0175   16.0408    0.2597 H         1 LIG         0.4600 
    124 HAE1       12.0680   14.2105   -1.1337 H         1 LIG         0.4600 
    125 HAE2       12.4622   12.6344   -0.5098 H         1 LIG         0.4600 
    126 HN         16.8139   14.7947    4.4921 H         1 LIG         0.3000 
    127 HA         17.8528   16.2447    2.2170 H         1 LIG         0.0600 
    128 HB1        17.9693   18.1536    3.9550 H         1 LIG         0.0600 
    129 HB2        18.8542   16.6964    4.2426 H         1 LIG         0.0600 
    130 HG1        16.3820   16.0999    5.5583 H         1 LIG         0.0600 
    131 HG2        16.4540   17.8005    5.6610 H         1 LIG         0.0600 
    132 HD1        18.9925   16.3723    6.2892 H         1 LIG         0.0600 
    133 HD2        17.8653   16.0396    7.4586 H         1 LIG         0.0600 
    134 HNE        18.9818   18.6343    6.6687 H         1 LIG         0.4400 
    135 HH11       16.6048   18.3356    9.9415 H         1 LIG         0.4600 
    136 HH12       16.7008   16.9525    8.8808 H         1 LIG         0.4600 
    137 HH21       17.7674   20.2695    9.4643 H         1 LIG         0.4600 
    138 HH22       18.8400   20.3266    8.0845 H         1 LIG         0.4600 
    139 HAF1       15.4007   18.5169    1.1602 H         1 LIG         0.3800 
    140 HAF2       17.0738   18.0026    1.1255 H         1 LIG         0.3800 
@<TRIPOS>BOND
     1    1    2 ar   
     2    1    6 ar   
     3    2    3 ar   
     4    2   68 1    
     5    3    4 ar   
     6    4    5 ar   
     7    4   10 ar   
     8    5    6 ar   
     9    5    8 ar   
    10    6    7 1    
    11    7   69 1    
    12    7   70 1    
    13    8    9 ar   
    14    9   10 ar   
    15    9   71 1    
    16   10   19 1    
    17   11   15 2    
    18   12   16 1    
    19   12   72 1    
    20   13   17 1    
    21   13   73 1    
    22   14   18 1    
    23   14   19 1    
    24   15   18 1    
    25   15   27 am   BACKBONE|DICT|INTERRES
    26   16   17 1    
    27   16   18 1    
    28   16   74 1    
    29   17   19 1    
    30   17   75 1    
    31   18   76 1    
    32   19   77 1    
    33   20   21 2    
    34   20   22 1    
    35   20   28 am   BACKBONE|DICT|INTERRES
    36   22   23 1    
    37   22   78 1    
    38   22   79 1    
    39   23   24 1    
    40   23   80 1    
    41   23   81 1    
    42   24   25 1    
    43   24   82 1    
    44   24   83 1    
    45   25   26 1    
    46   25   84 1    
    47   25   85 1    
    48   26   27 1    
    49   26   86 1    
    50   26   87 1    
    51   27   88 1    
    52   28   29 1    
    53   28   89 1    
    54   29   30 1    
    55   29   32 1    
    56   29   90 1    
    57   30   31 2    
    58   30   44 am   BACKBONE|DICT|INTERRES
    59   32   33 1    
    60   32   91 1    
    61   32   92 1    
    62   33   34 1    
    63   33   93 1    
    64   33   94 1    
    65   34   35 1    
    66   34   95 1    
    67   34   96 1    
    68   35   36 1    
    69   35   97 1    
    70   35   98 1    
    71   36   99 1    
    72   36  100 1    
    73   36  101 1    
    74   37   38 2    
    75   37   39 1    
    76   37   45 am   BACKBONE|DICT|INTERRES
    77   39   40 1    
    78   39  102 1    
    79   39  103 1    
    80   40   41 1    
    81   40  104 1    
    82   40  105 1    
    83   41   42 1    
    84   41  106 1    
    85   41  107 1    
    86   42   43 1    
    87   42  108 1    
    88   42  109 1    
    89   43   44 1    
    90   43  110 1    
    91   43  111 1    
    92   44  112 1    
    93   45   46 1    
    94   45  113 1    
    95   46   47 1    
    96   46   54 1    
    97   46  114 1    
    98   47   48 1    
    99   47  115 1    
   100   47  116 1    
   101   48   49 1    
   102   48  117 1    
   103   48  118 1    
   104   49   50 1    
   105   49  119 1    
   106   49  120 1    
   107   50   51 ar   
   108   50  121 1    
   109   51   52 ar   
   110   51   53 ar   
   111   52  122 1    
   112   52  123 1    
   113   53  124 1    
   114   53  125 1    
   115   54   55 2    
   116   54   56 am   BACKBONE|DICT|INTERRES
   117   56   57 1    
   118   56  126 1    
   119   57   58 1    
   120   57   65 1    
   121   57  127 1    
   122   58   59 1    
   123   58  128 1    
   124   58  129 1    
   125   59   60 1    
   126   59  130 1    
   127   59  131 1    
   128   60   61 1    
   129   60  132 1    
   130   60  133 1    
   131   61   62 ar   
   132   61  134 1    
   133   62   63 ar   
   134   62   64 ar   
   135   63  135 1    
   136   63  136 1    
   137   64  137 1    
   138   64  138 1    
   139   65   66 2    
   140   65   67 am   BACKBONE|DICT|INTERRES
   141   67  139 1    
   142   67  140 1    
@<TRIPOS>SUBSTRUCTURE
     1 LIG         1 GROUP             0       ****    0 ROOT    
