@<TRIPOS>MOLECULE
:5dwr_ligand
56   59    1
SMALL
USER_CHARGES


@<TRIPOS>ATOM
      1 C1        -40.9660   -1.8740    4.5420 C.3       1 LIG        -0.0600 
      2 C2        -40.8620   -3.0170    5.5460 C.3       1 LIG        -0.1200 
      3 C3        -40.7410   -4.4010    4.8800 C.3       1 LIG         0.2500 
      4 C11       -39.0090   -2.8770    0.4690 C.ar      1 LIG        -0.2070 
      5 C12       -40.9940   -2.5110   -1.0020 C.2       1 LIG         0.6192 
      6 C13       -42.4570   -2.2000   -0.8760 C.ar      1 LIG         0.3658 
      7 C14       -43.2690   -2.2150   -2.0050 C.ar      1 LIG        -0.4470 
      8 C15       -44.6380   -2.1050   -1.8270 C.ar      1 LIG         0.2270 
      9 C16       -45.1360   -1.9630   -0.5540 C.ar      1 LIG        -0.0720 
     10 C17       -44.2610   -1.9200    0.5320 C.ar      1 LIG         0.5296 
     11 C18       -44.7350   -1.7710    1.9400 C.ar      1 LIG        -0.0446 
     12 C19       -45.6500   -0.7960    2.3210 C.ar      1 LIG         0.2200 
     13 C20       -46.1530   -0.6720    3.5920 C.ar      1 LIG        -0.1150 
     14 C21       -45.7270   -1.5680    4.5600 C.ar      1 LIG        -0.1150 
     15 C22       -44.8000   -2.5500    4.2510 C.ar      1 LIG        -0.1150 
     16 C23       -44.3300   -2.6200    2.9600 C.ar      1 LIG         0.2200 
     17 F2        -43.3970   -3.5570    2.6630 F         1 LIG        -0.2200 
     18 F1        -46.0540    0.0830    1.3780 F         1 LIG        -0.2200 
     19 F         -46.4730   -1.8840   -0.3750 F         1 LIG        -0.2200 
     20 N3        -42.9350   -2.0310    0.3670 N.ar      1 LIG        -0.6780 
     21 O         -40.5010   -2.8530   -2.0760 O.2       1 LIG        -0.5000 
     22 N2        -40.3140   -2.4310    0.1650 N.am      1 LIG        -0.3850 
     23 C10       -37.9850   -2.8640   -0.4850 C.ar      1 LIG         0.4730 
     24 N1        -36.7290   -3.2430   -0.2500 N.ar      1 LIG        -0.6780 
     25 C9        -36.4530   -3.6660    0.9820 C.ar      1 LIG         0.4730 
     26 C8        -37.3800   -3.7140    2.0020 C.ar      1 LIG        -0.4470 
     27 C7        -38.6900   -3.3130    1.7630 C.ar      1 LIG         0.1770 
     28 C5        -39.7190   -3.2860    2.8850 C.3       1 LIG         0.0550 
     29 C4        -39.5270   -4.3670    3.9490 C.3       1 LIG        -0.1200 
     30 N         -40.5840   -5.4540    5.8860 N.4       1 LIG        -0.3000 
     31 C6        -39.7900   -1.9210    3.5720 C.3       1 LIG        -0.1200 
     32 C         -41.0440   -0.5240    5.2440 C.3       1 LIG        -0.1800 
     33 H1        -41.8826   -1.9966    3.9696 H         1 LIG         0.0600 
     34 H21       -41.7384   -3.0072    6.1962 H         1 LIG         0.0600 
     35 H22       -40.0017   -2.8492    6.1965 H         1 LIG         0.0600 
     36 H3        -41.6454   -4.6224    4.3117 H         1 LIG         0.0600 
     37 H14       -42.8583   -2.3565   -2.9929 H         1 LIG         0.1550 
     38 H15       -45.3265   -2.1980   -2.6269 H         1 LIG         0.0650 
     39 H20       -46.8651    0.1041    3.8314 H         1 LIG         0.1150 
     40 H21       -46.1107   -1.4921    5.5669 H         1 LIG         0.1150 
     41 H22       -44.4507   -3.2405    5.0054 H         1 LIG         0.1150 
     42 HN2       -40.8929   -2.1937    0.9589 H         1 LIG         0.3000 
     43 H10       -38.1678   -2.5317   -1.4933 H         1 LIG         0.0120 
     44 H9        -35.4478   -4.0033    1.1595 H         1 LIG         0.0120 
     45 H8        -37.0584   -4.0557    2.9735 H         1 LIG         0.1550 
     46 H5        -40.6959   -3.4620    2.4382 H         1 LIG         0.0600 
     47 H41       -39.4130   -5.3396    3.4673 H         1 LIG         0.0600 
     48 H42       -38.6178   -4.1938    4.5266 H         1 LIG         0.0600 
     49 H1        -40.4983   -6.3493    5.4173 H         1 LIG         0.3300 
     50 H2        -39.7660   -5.2831    6.4517 H         1 LIG         0.3300 
     51 H3        -41.4098   -5.4773    6.4812 H         1 LIG         0.3300 
     52 H61       -38.8535   -1.7087    4.0883 H         1 LIG         0.0600 
     53 H62       -39.9144   -1.1375    2.8236 H         1 LIG         0.0600 
     54 HXT1      -41.1180    0.2890    4.5220 H         1 LIG         0.0600 
     55 HXT2      -41.9113   -0.4665    5.9025 H         1 LIG         0.0600 
     56 HXT3      -40.1536   -0.3538    5.8450 H         1 LIG         0.0600 
@<TRIPOS>BOND
     1    1    2 1    
     2    1   31 1    
     3    1   32 1    
     4    1   33 1    
     5    2    3 1    
     6    2   34 1    
     7    2   35 1    
     8    3   29 1    
     9    3   30 1    
    10    3   36 1    
    11    4   22 1    
    12    4   23 ar   
    13    4   27 ar   
    14    5    6 1    
    15    5   21 2    
    16    5   22 am   BACKBONE|DICT|INTERRES
    17    6    7 ar   
    18    6   20 ar   
    19    7    8 ar   
    20    7   37 1    
    21    8    9 ar   
    22    8   38 1    
    23    9   10 ar   
    24    9   19 1    
    25   10   11 1    
    26   10   20 ar   
    27   11   12 ar   
    28   11   16 ar   
    29   12   13 ar   
    30   12   18 1    
    31   13   14 ar   
    32   13   39 1    
    33   14   15 ar   
    34   14   40 1    
    35   15   16 ar   
    36   15   41 1    
    37   16   17 1    
    38   22   42 1    
    39   23   24 ar   
    40   23   43 1    
    41   24   25 ar   
    42   25   26 ar   
    43   25   44 1    
    44   26   27 ar   
    45   26   45 1    
    46   27   28 1    
    47   28   29 1    
    48   28   31 1    
    49   28   46 1    
    50   29   47 1    
    51   29   48 1    
    52   30   49 1    
    53   30   50 1    
    54   30   51 1    
    55   31   52 1    
    56   31   53 1    
    57   32   54 1    
    58   32   55 1    
    59   32   56 1    
@<TRIPOS>SUBSTRUCTURE
     1 LIG         1 GROUP             0       ****    0 ROOT    
