@<TRIPOS>MOLECULE
:3p5o_ligand
52   55    1
SMALL
USER_CHARGES


@<TRIPOS>ATOM
      1 CL         30.0640   48.5180   -7.0500 Cl        1 LIG        -0.1800 
      2 C10        29.0760   49.1150   -5.7480 C.ar      1 LIG         0.1800 
      3 C9         29.4380   48.8300   -4.4430 C.ar      1 LIG        -0.1150 
      4 C8         28.6500   49.2820   -3.4020 C.ar      1 LIG        -0.1150 
      5 C11        27.9370   49.8640   -6.0320 C.ar      1 LIG        -0.1150 
      6 C12        27.1490   50.3230   -4.9760 C.ar      1 LIG        -0.1150 
      7 C7         27.5180   50.0660   -3.6500 C.ar      1 LIG         0.0044 
      8 C6         26.6630   50.4900   -2.5010 C.2       1 LIG         0.3809 
      9 N2         25.4340   50.7350   -2.8010 N.2       1 LIG        -0.6099 
     10 C13        27.2720   50.4370   -1.1350 C.ar      1 LIG         0.0044 
     11 C19        26.5010   50.1460   -0.0080 C.ar      1 LIG         0.1225 
     12 C18        26.9420   50.5620    1.2500 C.ar      1 LIG        -0.1150 
     13 C17        28.1760   51.1830    1.4220 C.ar      1 LIG        -0.1150 
     14 C15        28.9860   51.4230    0.3120 C.ar      1 LIG         0.0850 
     15 O2         30.2210   52.0450    0.4010 O.3       1 LIG        -0.2850 
     16 C16        30.8290   52.2390    1.6800 C.3       1 LIG         0.1100 
     17 C14        28.5320   51.0310   -0.9440 C.ar      1 LIG        -0.1150 
     18 N3         25.1990   49.5540   -0.0700 N.pl3     1 LIG        -0.2159 
     19 C22        24.1840   50.0970   -0.8260 C.ar      1 LIG         0.2950 
     20 N5         23.0880   49.3970   -0.6560 N.2       1 LIG        -0.3633 
     21 N4         23.3830   48.3730    0.2570 N.2       1 LIG        -0.3633 
     22 C20        24.6440   48.4840    0.5990 C.ar      1 LIG         0.2950 
     23 C21        25.3360   47.5810    1.5530 C.3       1 LIG        -0.0650 
     24 C5         24.5290   51.2470   -1.7650 C.3       1 LIG         0.2752 
     25 C4         23.2930   51.7520   -2.5170 C.3       1 LIG        -0.1200 
     26 C3         23.6190   52.9410   -3.4060 C.2       1 LIG         0.5000 
     27 O1         24.6110   53.6270   -3.1960 O.2       1 LIG        -0.5000 
     28 N1         22.7760   53.2000   -4.4070 N.am      1 LIG        -0.5000 
     29 C2         23.0040   54.3190   -5.3120 C.3       1 LIG         0.0800 
     30 C1         21.7710   54.6940   -6.1080 C.3       1 LIG        -0.1800 
     31 H9         30.3103   48.2277   -4.2393 H         1 LIG         0.1150 
     32 H8         28.9488   48.9877   -2.4111 H         1 LIG         0.1150 
     33 H11        27.6587   50.0732   -7.0545 H         1 LIG         0.1150 
     34 H12        26.2619   50.8945   -5.2083 H         1 LIG         0.1150 
     35 H18        26.3350   50.3912    2.1193 H         1 LIG         0.1150 
     36 H17        28.4778   51.4734    2.4159 H         1 LIG         0.1150 
     37 H161       31.8359   52.6339    1.5469 H         1 LIG         0.0300 
     38 H162       30.2661   52.9556    2.2794 H         1 LIG         0.0300 
     39 H163       30.9093   51.2981    2.2265 H         1 LIG         0.0300 
     40 H14        29.1360   51.3191   -1.7921 H         1 LIG         0.1150 
     41 H211       24.7004   46.7310    1.8014 H         1 LIG         0.0600 
     42 H212       26.2612   47.2065    1.1163 H         1 LIG         0.0600 
     43 H213       25.5773   48.1113    2.4730 H         1 LIG         0.0600 
     44 H5         24.9793   52.0571   -1.1861 H         1 LIG         0.0600 
     45 H41        22.5144   52.0473   -1.8137 H         1 LIG         0.0600 
     46 H42        22.8883   50.9522   -3.1310 H         1 LIG         0.0600 
     47 HN1        21.9683   52.6108   -4.5524 H         1 LIG         0.3000 
     48 H21        23.8100   54.0509   -5.9965 H         1 LIG         0.0600 
     49 H22        23.3414   55.2012   -4.7663 H         1 LIG         0.0600 
     50 H11        21.9810   55.5248   -6.7818 H         1 LIG         0.0600 
     51 H12        21.4208   53.8557   -6.7111 H         1 LIG         0.0600 
     52 H13        20.9567   54.9976   -5.4490 H         1 LIG         0.0600 
@<TRIPOS>BOND
     1    1    2 1    
     2    2    3 ar   
     3    2    5 ar   
     4    3    4 ar   
     5    3   31 1    
     6    4    7 ar   
     7    4   32 1    
     8    5    6 ar   
     9    5   33 1    
    10    6    7 ar   
    11    6   34 1    
    12    7    8 1    
    13    8    9 2    
    14    8   10 1    
    15    9   24 1    
    16   10   11 ar   
    17   10   17 ar   
    18   11   12 ar   
    19   11   18 1    
    20   12   13 ar   
    21   12   35 1    
    22   13   14 ar   
    23   13   36 1    
    24   14   15 1    
    25   14   17 ar   
    26   15   16 1    
    27   16   37 1    
    28   16   38 1    
    29   16   39 1    
    30   17   40 1    
    31   18   19 ar   
    32   18   22 ar   
    33   19   20 ar   
    34   19   24 1    
    35   20   21 ar   
    36   21   22 ar   
    37   22   23 1    
    38   23   41 1    
    39   23   42 1    
    40   23   43 1    
    41   24   25 1    
    42   24   44 1    
    43   25   26 1    
    44   25   45 1    
    45   25   46 1    
    46   26   27 2    
    47   26   28 am   BACKBONE|DICT|INTERRES
    48   28   29 1    
    49   28   47 1    
    50   29   30 1    
    51   29   48 1    
    52   29   49 1    
    53   30   50 1    
    54   30   51 1    
    55   30   52 1    
@<TRIPOS>SUBSTRUCTURE
     1 LIG         1 GROUP             0       ****    0 ROOT    
