@<TRIPOS>MOLECULE
:4gr0_ligand
74   77    1
SMALL
USER_CHARGES


@<TRIPOS>ATOM
      1 O4         -9.6010   26.0450   -4.7330 O.2       1 LIG        -0.5000 
      2 N1         -6.1200   22.2700   -5.8680 N.2       1 LIG        -0.4130 
      3 O1         -7.2270   22.5580   -5.1980 O.3       1 LIG        -0.1220 
      4 C25        -8.6420   26.3650   -4.0050 C.2       1 LIG         0.5000 
      5 C17        -8.1980   25.4570   -2.9020 C.3       1 LIG        -0.1303 
      6 C16        -8.2510   24.0430   -3.4520 C.3       1 LIG        -0.0050 
      7 C14        -5.7580   23.9730   -4.4250 C.2       1 LIG        -0.4550 
      8 C13        -5.1900   23.1350   -5.4020 C.2       1 LIG         0.4253 
      9 C12        -3.7880   23.1050   -5.8850 C.ar      1 LIG         0.0327 
     10 C11        -3.4430   22.2520   -6.9280 C.ar      1 LIG        -0.1150 
     11 C10        -2.1190   22.2030   -7.3680 C.ar      1 LIG        -0.1150 
     12 C7         -1.1650   23.0020   -6.7430 C.ar      1 LIG         0.0000 
     13 C8         -1.5210   23.8260   -5.6810 C.ar      1 LIG        -0.1150 
     14 C9         -2.8330   23.8780   -5.2410 C.ar      1 LIG        -0.1150 
     15 C15        -7.0930   23.5790   -4.3140 C.2       1 LIG         0.2330 
     16 CL1         3.1990   20.4700   -8.3220 Cl        1 LIG        -0.1800 
     17 C1          2.3140   21.9380   -7.8040 C.ar      1 LIG         0.1800 
     18 C2          0.9530   21.8600   -7.5000 C.ar      1 LIG        -0.1150 
     19 C3          2.9980   23.1440   -7.7060 C.ar      1 LIG        -0.1150 
     20 C4          2.3280   24.2900   -7.3030 C.ar      1 LIG        -0.1150 
     21 C5          0.9740   24.2160   -7.0030 C.ar      1 LIG        -0.1150 
     22 C6          0.2800   23.0120   -7.1180 C.ar      1 LIG         0.0000 
     23 C18        -9.2530   25.5590   -1.8010 C.3       1 LIG        -0.3597 
     24 P1         -8.7640   24.8480   -0.2020 P.3       1 LIG         1.6414 
     25 O2         -7.3260   25.2370    0.0620 O.co2     1 LIG        -0.9700 
     26 O3         -9.0670   23.3730   -0.1970 O.co2     1 LIG        -0.9700 
     27 C19        -9.7780   25.5930    1.0060 C.ar      1 LIG        -0.4314 
     28 C20        -9.2110   25.9490    2.2180 C.ar      1 LIG        -0.1150 
     29 C21       -10.0000   26.5340    3.2030 C.ar      1 LIG        -0.1150 
     30 C22       -11.3470   26.7440    2.9640 C.ar      1 LIG         0.2000 
     31 BR1       -12.3740   27.5440    4.3510 Br        1 LIG        -0.2000 
     32 C23       -11.9210   26.3720    1.7500 C.ar      1 LIG        -0.1150 
     33 C24       -11.1340   25.7940    0.7560 C.ar      1 LIG        -0.1150 
     34 N2         -7.9810   27.5010   -4.1610 N.am      1 LIG        -0.5000 
     35 C26        -8.4690   28.5010   -5.1060 C.3       1 LIG         0.1400 
     36 C30        -7.7640   28.4380   -6.4610 C.2       1 LIG         0.5000 
     37 O7         -6.6020   28.0250   -6.5580 O.2       1 LIG        -0.5000 
     38 C27        -8.3560   29.8920   -4.5070 C.3       1 LIG        -0.1800 
     39 N3         -8.4740   28.8340   -7.5120 N.am      1 LIG        -0.5000 
     40 C31        -7.8460   28.9790   -8.8150 C.3       1 LIG         0.1400 
     41 C35        -6.7690   30.0600   -8.7190 C.2       1 LIG         0.5000 
     42 O10        -5.6020   29.8270   -9.0490 O.2       1 LIG        -0.5000 
     43 C32        -8.8850   29.3380   -9.8750 C.3       1 LIG        -0.1800 
     44 N4         -7.1650   31.2380   -8.2450 N.am      1 LIG        -0.7600 
     45 H17        -7.2056   25.7205   -2.5329 H         1 LIG         0.0600 
     46 H161       -9.2069   23.7652   -3.9010 H         1 LIG         0.0600 
     47 H162       -8.1525   23.4232   -2.5761 H         1 LIG         0.0600 
     48 H14        -5.2794   24.7599   -3.8624 H         1 LIG         0.1840 
     49 H11        -4.1776   21.6254   -7.4122 H         1 LIG         0.1150 
     50 H10        -1.8442   21.5527   -8.1854 H         1 LIG         0.1150 
     51 H8         -0.7961   24.4175   -5.1428 H         1 LIG         0.1150 
     52 H9         -3.1001   24.5204   -4.4181 H         1 LIG         0.1150 
     53 H2          0.4386   20.9177   -7.5996 H         1 LIG         0.1150 
     54 H3          4.0498   23.1914   -7.9467 H         1 LIG         0.1150 
     55 H4          2.8238   25.2404   -7.2523 H         1 LIG         0.1150 
     56 H5          0.4751   25.1313   -6.7201 H         1 LIG         0.1150 
     57 H181      -10.2037   25.1797   -2.1447 H         1 LIG         0.0800 
     58 H182       -9.4394   26.6149   -1.6021 H         1 LIG         0.0800 
     59 H20        -8.1624   25.7784    2.4124 H         1 LIG         0.1150 
     60 H21        -9.5639   26.8182    4.1494 H         1 LIG         0.1150 
     61 H23       -12.9740   26.5379    1.5762 H         1 LIG         0.1150 
     62 H24       -11.5708   25.5140   -0.1905 H         1 LIG         0.1150 
     63 HN2        -7.1802   27.7155   -3.5833 H         1 LIG         0.3000 
     64 H26        -9.5325   28.3644   -5.2875 H         1 LIG         0.0600 
     65 H271       -8.7049   30.6585   -5.2005 H         1 LIG         0.0600 
     66 H272       -8.9596   29.9764   -3.6031 H         1 LIG         0.0600 
     67 H273       -7.3278   30.1289   -4.2348 H         1 LIG         0.0600 
     68 HN3        -9.4443   29.0995   -7.3985 H         1 LIG         0.3000 
     69 H31        -7.3812   28.0361   -9.1019 H         1 LIG         0.0600 
     70 H321       -8.4254   29.4455  -10.8582 H         1 LIG         0.0600 
     71 H322       -9.6443   28.5617   -9.9536 H         1 LIG         0.0600 
     72 H323       -9.4016   30.2703   -9.6431 H         1 LIG         0.0600 
     73 H41        -6.4956   31.9878   -8.1523 H         1 LIG         0.3800 
     74 H42        -8.1284   31.3745   -7.9779 H         1 LIG         0.3800 
@<TRIPOS>BOND
     1    1    4 2    
     2    2    3 1    
     3    2    8 2    
     4    3   15 1    
     5    4    5 1    
     6    4   34 am   BACKBONE|DICT|INTERRES
     7    5    6 1    
     8    5   23 1    
     9    5   45 1    
    10    6   15 1    
    11    6   46 1    
    12    6   47 1    
    13    7    8 1    
    14    7   15 2    
    15    7   48 1    
    16    8    9 1    
    17    9   10 ar   
    18    9   14 ar   
    19   10   11 ar   
    20   10   49 1    
    21   11   12 ar   
    22   11   50 1    
    23   12   13 ar   
    24   12   22 1    
    25   13   14 ar   
    26   13   51 1    
    27   14   52 1    
    28   16   17 1    
    29   17   18 ar   
    30   17   19 ar   
    31   18   22 ar   
    32   18   53 1    
    33   19   20 ar   
    34   19   54 1    
    35   20   21 ar   
    36   20   55 1    
    37   21   22 ar   
    38   21   56 1    
    39   23   24 1    
    40   23   57 1    
    41   23   58 1    
    42   24   25 2    
    43   24   26 1    
    44   24   27 1    
    45   27   28 ar   
    46   27   33 ar   
    47   28   29 ar   
    48   28   59 1    
    49   29   30 ar   
    50   29   60 1    
    51   30   31 1    
    52   30   32 ar   
    53   32   33 ar   
    54   32   61 1    
    55   33   62 1    
    56   34   35 1    
    57   34   63 1    
    58   35   36 1    
    59   35   38 1    
    60   35   64 1    
    61   36   37 2    
    62   36   39 am   BACKBONE|DICT|INTERRES
    63   38   65 1    
    64   38   66 1    
    65   38   67 1    
    66   39   40 1    
    67   39   68 1    
    68   40   41 1    
    69   40   43 1    
    70   40   69 1    
    71   41   42 2    
    72   41   44 am   BACKBONE|DICT|INTERRES
    73   43   70 1    
    74   43   71 1    
    75   43   72 1    
    76   44   73 1    
    77   44   74 1    
@<TRIPOS>SUBSTRUCTURE
     1 LIG         1 GROUP             0       ****    0 ROOT    
