@<TRIPOS>MOLECULE
:1syi_ligand
30   31    1
SMALL
USER_CHARGES


@<TRIPOS>ATOM
      1 C1         20.8260   14.5010   57.5680 C.3       1 LIG         0.0025 
      2 N1         20.8810   13.0440   57.5190 N.pl3     1 LIG        -0.3125 
      3 C2         22.2080   12.3740   57.4970 C.ar      1 LIG         0.5000 
      4 N2         22.2400   11.0200   57.4930 N.pl3     1 LIG        -0.5100 
      5 C3         19.7250   12.2500   57.6040 C.ar      1 LIG         0.1800 
      6 O1         23.2100   13.1160   57.4860 O.2       1 LIG        -0.4000 
      7 C4         19.7900   10.8900   57.6220 C.ar      1 LIG         0.0300 
      8 C5         21.1160   10.2230   57.5340 C.ar      1 LIG         0.4500 
      9 O2         21.1840    8.9800   57.4860 O.2       1 LIG        -0.4200 
     10 C6         18.2910   12.7570   57.6120 C.3       1 LIG        -0.1200 
     11 C7         17.4400   11.4640   57.6990 C.3       1 LIG        -0.1200 
     12 C8         18.4250   10.2590   57.6340 C.3       1 LIG        -0.1200 
     13 C9         21.1450   15.0390   58.9950 C.3       1 LIG         0.0625 
     14 C10        21.5240   16.5440   58.8350 C.2       1 LIG         0.4450 
     15 O3         22.4710   16.8500   58.0640 O.co2     1 LIG        -0.7225 
     16 O4         20.8510   17.3600   59.5430 O.co2     1 LIG        -0.7225 
     17 N3         20.0300   14.7180   59.9580 N.4       1 LIG         0.2475 
     18 H11        19.8281   14.7926   57.2510 H         1 LIG         0.0600 
     19 H12        21.5101   14.8398   56.7878 H         1 LIG         0.0600 
     20 HN2        23.1505   10.5773   57.5081 H         1 LIG         0.3600 
     21 H61        18.1431   13.2183   56.6454 H         1 LIG         0.0600 
     22 H62        18.0828   13.4637   58.4147 H         1 LIG         0.0600 
     23 H71        16.7397   11.4049   56.8730 H         1 LIG         0.0600 
     24 H72        16.8675   11.4442   58.6272 H         1 LIG         0.0600 
     25 H81        18.3244    9.6067   58.5009 H         1 LIG         0.0600 
     26 H82        18.2782    9.6674   56.7297 H         1 LIG         0.0600 
     27 H9         22.0164   14.5237   59.3775 H         1 LIG         0.0600 
     28 H31        20.2937   15.0488   60.8765 H         1 LIG         0.2100 
     29 H32        19.1707   15.1706   59.6743 H         1 LIG         0.2100 
     30 H33        19.8951   13.7149   60.0012 H         1 LIG         0.2100 
@<TRIPOS>BOND
     1    1    2 1    
     2    1   13 1    
     3    1   18 1    
     4    1   19 1    
     5    2    3 ar   
     6    2    5 ar   
     7    3    4 ar   
     8    3    6 2    
     9    4    8 ar   
    10    4   20 1    
    11    5    7 ar   
    12    5   10 1    
    13    7    8 ar   
    14    7   12 1    
    15    8    9 2    
    16   10   11 1    
    17   10   21 1    
    18   10   22 1    
    19   11   12 1    
    20   11   23 1    
    21   11   24 1    
    22   12   25 1    
    23   12   26 1    
    24   13   14 1    
    25   13   17 1    
    26   13   27 1    
    27   14   15 2    
    28   14   16 1    
    29   17   28 1    
    30   17   29 1    
    31   17   30 1    
@<TRIPOS>SUBSTRUCTURE
     1 LIG         1 GROUP             0       ****    0 ROOT    
