@<TRIPOS>MOLECULE
:1o0h_ligand
39   41    1
SMALL
USER_CHARGES


@<TRIPOS>ATOM
      1 PB         36.3960    3.6770   13.0870 P.3       1 LIG         1.8725 
      2 O1B        34.8920    3.6930   13.2380 O.co2     1 LIG        -1.1200 
      3 O2B        36.8630    2.8290   11.9540 O.co2     1 LIG        -1.1200 
      4 O3B        37.0960    3.4210   14.4010 O.co2     1 LIG        -1.1200 
      5 PA         37.9000    6.2210   13.0920 P.3       1 LIG         1.3317 
      6 O1A        38.0310    7.1920   11.9400 O.co2     1 LIG        -0.9700 
      7 O2A        39.1520    5.4990   13.5040 O.co2     1 LIG        -0.9700 
      8 O3A        36.7340    5.1870   12.6700 O.3       1 LIG        -0.4943 
      9 O5         37.2930    7.0740   14.2970 O.3       1 LIG        -0.6100 
     10 C5         36.8400    6.4500   15.4990 C.3       1 LIG         0.0800 
     11 C4         36.7120    7.5500   16.5400 C.3       1 LIG         0.1700 
     12 O4         35.9760    7.0030   17.6310 O.3       1 LIG        -0.4000 
     13 C3         37.9990    8.0950   17.1610 C.3       1 LIG         0.2050 
     14 O3         37.8500    9.4950   17.3490 O.3       1 LIG        -0.6830 
     15 C2         38.0980    7.4020   18.5040 C.3       1 LIG         0.2050 
     16 O2         38.8770    8.0660   19.4910 O.3       1 LIG        -0.6830 
     17 C1         36.6210    7.3530   18.8410 C.3       1 LIG         0.4500 
     18 N9         36.2750    6.3700   19.8890 N.pl3     1 LIG        -0.5000 
     19 C8         35.4190    6.6700   20.9000 C.ar      1 LIG         0.2000 
     20 N7         35.2130    5.6310   21.7470 N.2       1 LIG        -0.4900 
     21 C5         35.9970    4.6910   21.2370 C.ar      1 LIG         0.1500 
     22 C6         36.2450    3.3380   21.6560 C.ar      1 LIG         0.4400 
     23 N6         35.6560    2.8700   22.7770 N.pl3     1 LIG        -0.8100 
     24 N1         37.0910    2.6100   20.9220 N.ar      1 LIG        -0.5300 
     25 C2         37.6800    3.1030   19.8200 C.ar      1 LIG         0.2200 
     26 N3         37.5120    4.3400   19.3410 N.ar      1 LIG        -0.5500 
     27 C4         36.6900    5.1170   20.0300 C.ar      1 LIG         0.3800 
     28 H51        37.5336    5.6766   15.8317 H         1 LIG         0.0600 
     29 H52        35.8822    5.9732   15.2986 H         1 LIG         0.0600 
     30 H4         36.1159    8.3577   16.1108 H         1 LIG         0.0300 
     31 H3         38.8756    7.9130   16.5379 H         1 LIG         0.0600 
     32 HO3        38.5349    9.7805   17.9363 H         1 LIG         0.4180 
     33 H2         38.4923    6.4026   18.3383 H         1 LIG         0.0600 
     34 HO2        38.7957    7.5879   20.3026 H         1 LIG         0.4180 
     35 H1         36.2368    8.3144   19.1924 H         1 LIG         0.1000 
     36 H8         34.8479    7.5592   20.9525 H         1 LIG         0.2000 
     37 H61        35.8285    1.9220   23.0790 H         1 LIG         0.3700 
     38 H62        35.0287    3.4603   23.3087 H         1 LIG         0.3700 
     39 H2         38.3332    2.4429   19.2682 H         1 LIG         0.2000 
@<TRIPOS>BOND
     1    1    2 2    
     2    1    3 1    
     3    1    4 1    
     4    1    8 1    
     5    5    6 2    
     6    5    7 1    
     7    5    8 1    
     8    5    9 1    
     9    9   10 1    
    10   10   11 1    
    11   10   28 1    
    12   10   29 1    
    13   11   12 1    
    14   11   13 1    
    15   11   30 1    
    16   12   17 1    
    17   13   14 1    
    18   13   15 1    
    19   13   31 1    
    20   14   32 1    
    21   15   16 1    
    22   15   17 1    
    23   15   33 1    
    24   16   34 1    
    25   17   18 1    
    26   17   35 1    
    27   18   19 ar   
    28   18   27 ar   
    29   19   20 ar   
    30   19   36 1    
    31   20   21 ar   
    32   21   22 ar   
    33   21   27 ar   
    34   22   23 1    
    35   22   24 ar   
    36   23   37 1    
    37   23   38 1    
    38   24   25 ar   
    39   25   26 ar   
    40   25   39 1    
    41   26   27 ar   
@<TRIPOS>SUBSTRUCTURE
     1 LIG         1 GROUP             0       ****    0 ROOT    
