@<TRIPOS>MOLECULE
:4u4s_ligand
26   27    1
SMALL
USER_CHARGES


@<TRIPOS>ATOM
      1 C1        -16.5180   43.8380   -5.4890 C.ar      1 LIG         0.1326 
      2 N1        -17.3180   43.4250   -4.4810 N.pl3     1 LIG        -0.2445 
      3 O1        -13.5080   44.9610   -6.5320 O.2       1 LIG        -0.4680 
      4 C2        -17.4460   44.2350   -3.4190 C.ar      1 LIG         0.1326 
      5 N2        -14.7480   47.1390   -6.6080 N.pl3     1 LIG        -0.6527 
      6 O2        -15.5400   45.2350   -8.0410 O.2       1 LIG        -0.4680 
      7 C3        -16.7950   45.4540   -3.3290 C.ar      1 LIG        -0.2408 
      8 N3        -15.3020   47.1170   -4.3020 N.pl3     1 LIG        -0.5325 
      9 C4        -15.8450   45.0410   -5.4550 C.ar      1 LIG        -0.0282 
     10 C5        -14.3150   47.5110   -5.2840 C.3       1 LIG         0.2180 
     11 C6        -15.9610   45.9010   -4.3680 C.ar      1 LIG         0.5172 
     12 C7        -15.4170   47.9720   -3.1080 C.3       1 LIG         0.0900 
     13 C8        -16.7050   48.7960   -3.1220 C.3       1 LIG        -0.1800 
     14 S1        -14.8340   45.4840   -6.8020 S.o2      1 LIG         0.9819 
     15 H1        -16.4388   43.1562   -6.3229 H         1 LIG         0.1827 
     16 HN1       -17.8059   42.5289   -4.5209 H         1 LIG         0.3681 
     17 H2        -18.0868   43.8594   -2.6340 H         1 LIG         0.1827 
     18 HN2       -15.6181   47.6059   -6.8671 H         1 LIG         0.3572 
     19 H3        -16.9530   46.0304   -2.4309 H         1 LIG         0.2051 
     20 H51       -14.1713   48.5923   -5.2686 H         1 LIG         0.0733 
     21 H52       -13.3513   47.0562   -5.0513 H         1 LIG         0.0733 
     22 H71       -14.5658   48.6533   -3.0737 H         1 LIG         0.0600 
     23 H72       -15.3369   47.3831   -2.1975 H         1 LIG         0.0600 
     24 H81       -16.6943   49.5257   -2.3142 H         1 LIG         0.0600 
     25 H82       -16.7867   49.3212   -4.0683 H         1 LIG         0.0600 
     26 H83       -17.5966   48.1804   -3.0097 H         1 LIG         0.0600 
@<TRIPOS>BOND
     1    1    2 ar   
     2    1    9 ar   
     3    1   15 1    
     4    2    4 ar   
     5    2   16 1    
     6    3   14 2    
     7    4    7 ar   
     8    4   17 1    
     9    5   10 1    
    10    5   14 1    
    11    5   18 1    
    12    6   14 2    
    13    7   11 ar   
    14    7   19 1    
    15    8   10 1    
    16    8   11 1    
    17    8   12 1    
    18    9   11 ar   
    19    9   14 1    
    20   10   20 1    
    21   10   21 1    
    22   12   13 1    
    23   12   22 1    
    24   12   23 1    
    25   13   24 1    
    26   13   25 1    
    27   13   26 1    
@<TRIPOS>SUBSTRUCTURE
     1 LIG         1 GROUP             0       ****    0 ROOT    
