4u4s_ligand

Created by X-TOOL on Fri Nov 18 17:47:15 2016
 25 26  0  0  0  0  0  0  0  0999 V2000
  -16.5180   43.8380   -5.4890  C 0  0  0  2  0  3
  -17.3180   43.4250   -4.4810  N 0  0  0  1  0  2
  -13.5080   44.9610   -6.5320  O 0  0  0  1  0  1
  -17.4460   44.2350   -3.4190  C 0  0  0  2  0  3
  -14.7480   47.1390   -6.6080  N 0  0  0  2  0  3
  -15.5400   45.2350   -8.0410  O 0  0  0  1  0  1
  -16.7950   45.4540   -3.3290  C 0  0  0  2  0  3
  -15.3020   47.1170   -4.3020  N 0  0  0  1  0  3
  -15.8450   45.0410   -5.4550  C 0  0  0  1  0  3
  -14.3150   47.5110   -5.2840  C 0  0  0  3  0  4
  -15.9610   45.9010   -4.3680  C 0  0  0  1  0  3
  -15.4170   47.9720   -3.1080  C 0  0  0  3  0  4
  -16.7050   48.7960   -3.1220  C 0  0  0  4  0  4
  -14.8340   45.4840   -6.8020  S 0  0  0  1  0  4
  -16.4010   43.1993   -6.3570  H 0  0  0  1  0  1
  -18.0837   43.9231   -2.5997  H 0  0  0  1  0  1
  -14.9711   47.7971   -7.3272  H 0  0  0  1  0  1
  -16.9302   46.0701   -2.4474  H 0  0  0  1  0  1
  -14.1759   48.6013   -5.2410  H 0  0  0  1  0  1
  -13.3613   47.0106   -5.0604  H 0  0  0  1  0  1
  -14.5566   48.6566   -3.0760  H 0  0  0  1  0  1
  -15.4119   47.3345   -2.2116  H 0  0  0  1  0  1
  -16.7519   49.4185   -2.2163  H 0  0  0  1  0  1
  -17.5725   48.1201   -3.1477  H 0  0  0  1  0  1
  -16.7172   49.4423   -4.0120  H 0  0  0  1  0  1
  2  1  4  0  0  1
  1  9  4  0  0  1
  4  2  4  0  0  1
 14  3  2  0  0  2
  7  4  4  0  0  1
 10  5  1  0  0  1
  5 14  1  0  0  1
 14  6  2  0  0  2
 11  7  4  0  0  1
  8 10  1  0  0  1
  8 11  1  0  0  1
  8 12  1  0  0  2
  9 11  4  0  0  1
  9 14  1  0  0  1
 12 13  1  0  0  2
  1 15  1  0  0  2
  4 16  1  0  0  2
  5 17  1  0  0  2
  7 18  1  0  0  2
 10 19  1  0  0  2
 10 20  1  0  0  2
 12 21  1  0  0  2
 12 22  1  0  0  2
 13 23  1  0  0  2
 13 24  1  0  0  2
 13 25  1  0  0  2
M  END
> <MOLECULAR_FORMULA>
C8H11N3O2S

> <MOLECULAR_WEIGHT>
213.2

> <NUM_HB_ATOMS>
4  

> <NUM_ROTOR>
1  

> <XLOGP2>
0.38 

$$$$
