@<TRIPOS>MOLECULE
:3o9i_ligand
81   85    1
SMALL
USER_CHARGES


@<TRIPOS>ATOM
      1 C1         15.3520   36.5310   18.5170 C.2       1 LIG         0.1281 
      2 N1         14.9080   35.2650   18.5990 N.2       1 LIG        -0.5991 
      3 S1         16.5800   36.8090   17.3170 S.3       1 LIG        -0.0839 
      4 C2         15.5210   34.4370   17.7000 C.ar      1 LIG         0.6314 
      5 C3         16.4610   35.1460   16.9520 C.ar      1 LIG        -0.1027 
      6 C4         17.1930   34.4420   15.9750 C.ar      1 LIG        -0.1407 
      7 C5         17.0150   33.0530   15.7370 C.ar      1 LIG        -0.1187 
      8 C6         16.0430   32.3860   16.4880 C.ar      1 LIG         0.0055 
      9 C7         15.3180   33.0860   17.4470 C.ar      1 LIG        -0.4461 
     10 S8         17.9260   32.1540   14.7010 S.o2      1 LIG         0.9819 
     11 O9         18.4850   33.0220   13.7250 O.2       1 LIG        -0.4680 
     12 O10        17.1830   31.0640   14.1980 O.2       1 LIG        -0.4680 
     13 N11        19.1700   31.5540   15.5690 N.pl3     1 LIG        -0.5376 
     14 C12        19.9270   32.5650   16.3450 C.3       1 LIG         0.0588 
     15 C13        21.4440   32.3750   16.2810 C.3       1 LIG        -0.0233 
     16 C14        22.0330   32.4620   14.8690 C.3       1 LIG        -0.1200 
     17 C15        22.0940   33.3740   17.2590 C.3       1 LIG        -0.1200 
     18 C16        18.9220   30.2750   16.2580 C.3       1 LIG         0.0588 
     19 C17        19.8650   29.2000   15.7010 C.3       1 LIG         0.2417 
     20 C18        21.9790   34.8330   16.8600 C.3       1 LIG        -0.1800 
     21 O18        19.8310   28.0670   16.5910 O.3       1 LIG        -0.6830 
     22 C19        19.5080   28.7470   14.2770 C.3       1 LIG         0.1400 
     23 C20        23.4810   32.0150   14.8060 C.3       1 LIG        -0.1800 
     24 N20        20.5950   27.9280   13.7770 N.am      1 LIG        -0.4389 
     25 C21        21.4730   28.2990   12.8690 C.2       1 LIG         0.5159 
     26 O22        21.6050   29.3650   12.3130 O.2       1 LIG        -0.4970 
     27 O23        22.3820   27.2420   12.5840 O.3       1 LIG        -0.3300 
     28 C24        23.2490   27.4100   11.4690 C.3       1 LIG         0.2200 
     29 C25        24.5720   26.8190   11.9320 C.3       1 LIG         0.1400 
     30 O26        24.3840   25.4160   11.8230 O.3       1 LIG        -0.4000 
     31 C27        23.4930   25.1260   10.7590 C.3       1 LIG         0.3000 
     32 O28        22.5000   24.2140   11.1870 O.3       1 LIG        -0.4000 
     33 C29        21.2100   24.8230   11.2280 C.3       1 LIG         0.1400 
     34 C30        21.3300   26.0860   10.3880 C.3       1 LIG        -0.1200 
     35 C31        22.8110   26.4320   10.4000 C.3       1 LIG        -0.0600 
     36 C32        18.2080   27.9410   14.1700 C.3       1 LIG        -0.0050 
     37 C33        18.0390   26.1960   12.3640 C.ar      1 LIG        -0.1150 
     38 C34        17.8360   25.8160   11.0380 C.ar      1 LIG        -0.1150 
     39 C35        17.4940   26.7750   10.0950 C.ar      1 LIG        -0.1150 
     40 C36        17.3780   28.1100   10.4600 C.ar      1 LIG        -0.1150 
     41 C37        17.5970   28.4980   11.7730 C.ar      1 LIG        -0.1150 
     42 C38        17.9510   27.5410   12.7280 C.ar      1 LIG        -0.1150 
     43 H1         14.9705   37.2940   19.1772 H         1 LIG         0.1877 
     44 H4         17.9383   34.9619   15.4084 H         1 LIG         0.2050 
     45 H6         15.8605   31.3314   16.3510 H         1 LIG         0.1296 
     46 H7         14.5574   32.5680   18.0032 H         1 LIG         0.2114 
     47 H121       19.5621   32.5880   17.3718 H         1 LIG         0.0733 
     48 H122       19.7264   33.5541   15.9386 H         1 LIG         0.0733 
     49 H13        21.6608   31.3846   16.6802 H         1 LIG         0.0600 
     50 H141       21.9076   33.4447   14.4204 H         1 LIG         0.0600 
     51 H142       21.4710   31.7863   14.2250 H         1 LIG         0.0600 
     52 H151       23.1492   33.1233   17.3634 H         1 LIG         0.0600 
     53 H152       21.6780   33.2428   18.2584 H         1 LIG         0.0600 
     54 H161       17.8796   29.9657   16.2109 H         1 LIG         0.0733 
     55 H162       19.1207   30.3964   17.3235 H         1 LIG         0.0733 
     56 H17        20.8883   29.5720   15.7051 H         1 LIG         0.0600 
     57 H181       20.9583   35.1967   16.9792 H         1 LIG         0.0600 
     58 H182       22.6127   35.4513   17.4962 H         1 LIG         0.0600 
     59 H183       22.2694   35.0204   15.8412 H         1 LIG         0.0600 
     60 HO18       20.4154   28.2013   17.3292 H         1 LIG         0.4180 
     61 H19        19.4142   29.6351   13.6515 H         1 LIG         0.0600 
     62 H201       23.8123   31.8918   13.7777 H         1 LIG         0.0600 
     63 H202       24.1541   32.7197   15.2945 H         1 LIG         0.0600 
     64 H203       23.5671   31.0504   15.2998 H         1 LIG         0.0600 
     65 HN20       20.6826   26.9853   14.1322 H         1 LIG         0.3000 
     66 H24        23.3511   28.4286   11.0996 H         1 LIG         0.0300 
     67 H251       24.8558   27.1237   12.9366 H         1 LIG         0.0300 
     68 H252       25.3741   27.1144   11.2553 H         1 LIG         0.0300 
     69 H27        24.0461   24.6981    9.9216 H         1 LIG         0.1000 
     70 H291       20.9730   25.0691   12.2615 H         1 LIG         0.0300 
     71 H292       20.4371   24.1485   10.8648 H         1 LIG         0.0300 
     72 H301       20.6558   26.8894   10.6810 H         1 LIG         0.0600 
     73 H302       21.0531   25.8210    9.3678 H         1 LIG         0.0600 
     74 H31        23.1801   26.7575    9.4280 H         1 LIG         0.0600 
     75 H321       17.3551   28.5141   14.5270 H         1 LIG         0.0600 
     76 H322       18.2482   27.0473   14.7939 H         1 LIG         0.0600 
     77 H33        18.2887   25.4442   13.0966 H         1 LIG         0.1150 
     78 H34        17.9239   24.7783   10.7525 H         1 LIG         0.1150 
     79 H35        17.3221   26.4824    9.0697 H         1 LIG         0.1150 
     80 H36        17.1050   28.8438    9.7180 H         1 LIG         0.1150 
     81 H37        17.5059   29.5377   12.0481 H         1 LIG         0.1150 
@<TRIPOS>BOND
     1    1    2 2    
     2    1    3 1    
     3    1   43 1    
     4    2    4 1    
     5    3    5 1    
     6    4    5 ar   
     7    4    9 ar   
     8    5    6 ar   
     9    6    7 ar   
    10    6   44 1    
    11    7    8 ar   
    12    7   10 1    
    13    8    9 ar   
    14    8   45 1    
    15    9   46 1    
    16   10   11 2    
    17   10   12 2    
    18   10   13 1    
    19   13   14 1    
    20   13   18 1    
    21   14   15 1    
    22   14   47 1    
    23   14   48 1    
    24   15   16 1    
    25   15   17 1    
    26   15   49 1    
    27   16   23 1    
    28   16   50 1    
    29   16   51 1    
    30   17   20 1    
    31   17   52 1    
    32   17   53 1    
    33   18   19 1    
    34   18   54 1    
    35   18   55 1    
    36   19   21 1    
    37   19   22 1    
    38   19   56 1    
    39   20   57 1    
    40   20   58 1    
    41   20   59 1    
    42   21   60 1    
    43   22   24 1    
    44   22   36 1    
    45   22   61 1    
    46   23   62 1    
    47   23   63 1    
    48   23   64 1    
    49   24   25 am   BACKBONE|DICT|INTERRES
    50   24   65 1    
    51   25   26 2    
    52   25   27 1    
    53   27   28 1    
    54   28   29 1    
    55   28   35 1    
    56   28   66 1    
    57   29   30 1    
    58   29   67 1    
    59   29   68 1    
    60   30   31 1    
    61   31   32 1    
    62   31   35 1    
    63   31   69 1    
    64   32   33 1    
    65   33   34 1    
    66   33   70 1    
    67   33   71 1    
    68   34   35 1    
    69   34   72 1    
    70   34   73 1    
    71   35   74 1    
    72   36   42 1    
    73   36   75 1    
    74   36   76 1    
    75   37   38 ar   
    76   37   42 ar   
    77   37   77 1    
    78   38   39 ar   
    79   38   78 1    
    80   39   40 ar   
    81   39   79 1    
    82   40   41 ar   
    83   40   80 1    
    84   41   42 ar   
    85   41   81 1    
@<TRIPOS>SUBSTRUCTURE
     1 LIG         1 GROUP             0       ****    0 ROOT    
