@<TRIPOS>MOLECULE
:2xnb_ligand
50   53    1
SMALL
USER_CHARGES


@<TRIPOS>ATOM
      1 C17        21.0300   24.0090   29.2560 C.3       1 LIG         0.0900 
      2 C18        20.8700   22.4770   29.2510 C.3       1 LIG         0.1700 
      3 N19        21.7240   21.8210   28.2490 N.4       1 LIG        -0.2000 
      4 C20        21.5470   22.5040   26.9750 C.3       1 LIG         0.1700 
      5 C21        22.3130   23.8260   27.0370 C.3       1 LIG         0.0900 
      6 N16        21.9990   24.5490   28.2820 N.pl3     1 LIG        -0.6300 
      7 C12        22.4700   25.8690   28.4570 C.ar      1 LIG         0.2100 
      8 C13        23.3890   26.4280   27.5660 C.ar      1 LIG        -0.1150 
      9 C14        23.8190   27.7550   27.7100 C.ar      1 LIG        -0.1150 
     10 C11        22.0090   26.6430   29.5180 C.ar      1 LIG        -0.1150 
     11 C10        22.4710   27.9570   29.6610 C.ar      1 LIG        -0.1150 
     12 C9         23.3580   28.5430   28.7540 C.ar      1 LIG         0.2000 
     13 N7         23.7530   29.8120   28.9680 N.pl3     1 LIG        -0.7043 
     14 C4         24.8420   30.4290   28.4720 C.ar      1 LIG         0.9663 
     15 N5         25.7860   29.8320   27.7130 N.ar      1 LIG        -0.8390 
     16 N3         24.9300   31.7550   28.6910 N.ar      1 LIG        -0.8390 
     17 C2         25.9450   32.4780   28.2440 C.ar      1 LIG         0.6530 
     18 C1         26.9460   31.8720   27.5050 C.ar      1 LIG        -0.6890 
     19 C6         26.8650   30.5010   27.2580 C.ar      1 LIG         0.6640 
     20 C15        27.8370   29.8970   26.4430 C.2       1 LIG         0.0075 
     21 S23        29.2070   30.6630   25.7370 S.3       1 LIG        -0.0599 
     22 C24        29.6770   29.2860   24.8710 C.2       1 LIG         0.4088 
     23 O28        30.6760   29.1880   24.1620 O.2       1 LIG        -0.4970 
     24 N25        28.8420   28.2790   25.1390 N.am      1 LIG         0.1438 
     25 C29        29.0250   26.9260   24.5410 C.3       1 LIG        -0.1100 
     26 C26        27.8370   28.5720   25.9750 C.2       1 LIG        -0.0732 
     27 C27        26.8040   27.5160   26.3780 C.3       1 LIG        -0.1800 
     28 H171       21.3528   24.2604   30.2659 H         1 LIG         0.0600 
     29 H172       20.0622   24.4875   29.0994 H         1 LIG         0.0600 
     30 H181       19.8286   22.2182   29.0544 H         1 LIG         0.0600 
     31 H182       21.1086   22.0670   30.2329 H         1 LIG         0.0600 
     32 H191       21.4620   20.8495   28.1644 H         1 LIG         0.3100 
     33 H192       22.6930   21.8934   28.5256 H         1 LIG         0.3100 
     34 H201       20.4897   22.6621   26.7524 H         1 LIG         0.0600 
     35 H202       21.9494   21.8862   26.1719 H         1 LIG         0.0600 
     36 H211       22.0535   24.4415   26.1789 H         1 LIG         0.0600 
     37 H212       23.3792   23.6272   26.9735 H         1 LIG         0.0600 
     38 H13        23.7689   25.8746   26.7208 H         1 LIG         0.1150 
     39 H14        24.4164   28.1452   26.9253 H         1 LIG         0.1150 
     40 H11        21.2914   26.3004   30.2456 H         1 LIG         0.1150 
     41 H10        22.1002   28.5405   30.4912 H         1 LIG         0.1150 
     42 HN7        23.1733   30.3728   29.5800 H         1 LIG         0.3800 
     43 H2         25.8589   33.5418   28.2980 H         1 LIG         0.0110 
     44 H1         27.7395   32.4845   27.1049 H         1 LIG         0.1970 
     45 H291       28.9138   26.1112   25.2506 H         1 LIG         0.0600 
     46 H292       28.2842   26.7768   23.7547 H         1 LIG         0.0600 
     47 H293       30.0042   26.7996   24.0809 H         1 LIG         0.0600 
     48 H271       27.1324   26.4931   26.2258 H         1 LIG         0.0600 
     49 H272       26.5610   27.5460   27.4372 H         1 LIG         0.0600 
     50 H273       25.9336   27.6357   25.7382 H         1 LIG         0.0600 
@<TRIPOS>BOND
     1    1    2 1    
     2    1    6 1    
     3    1   28 1    
     4    1   29 1    
     5    2    3 1    
     6    2   30 1    
     7    2   31 1    
     8    3    4 1    
     9    3   32 1    
    10    3   33 1    
    11    4    5 1    
    12    4   34 1    
    13    4   35 1    
    14    5    6 1    
    15    5   36 1    
    16    5   37 1    
    17    6    7 1    
    18    7    8 ar   
    19    7   10 ar   
    20    8    9 ar   
    21    8   38 1    
    22    9   12 ar   
    23    9   39 1    
    24   10   11 ar   
    25   10   40 1    
    26   11   12 ar   
    27   11   41 1    
    28   12   13 1    
    29   13   14 1    
    30   13   42 1    
    31   14   15 ar   
    32   14   16 ar   
    33   15   19 ar   
    34   16   17 ar   
    35   17   18 ar   
    36   17   43 1    
    37   18   19 ar   
    38   18   44 1    
    39   19   20 1    
    40   20   21 1    
    41   20   26 2    
    42   21   22 1    
    43   22   23 2    
    44   22   24 am   BACKBONE|DICT|INTERRES
    45   24   25 1    
    46   24   26 1    
    47   25   45 1    
    48   25   46 1    
    49   25   47 1    
    50   26   27 1    
    51   27   48 1    
    52   27   49 1    
    53   27   50 1    
@<TRIPOS>SUBSTRUCTURE
     1 LIG         1 GROUP             0       ****    0 ROOT    
