@<TRIPOS>MOLECULE
:4llx_ligand
18   18    1
SMALL
USER_CHARGES


@<TRIPOS>ATOM
      1 C1          5.6930   11.0820   44.7630 C.3       1 LIG        -0.0650 
      2 C2          4.8910   12.2030   44.1300 C.ar      1 LIG         0.5490 
      3 C3          4.7850   12.3370   42.7290 C.ar      1 LIG        -0.6890 
      4 C4          4.0160   13.3940   42.2120 C.ar      1 LIG         0.5490 
      5 C5          3.8390   13.6130   40.7220 C.3       1 LIG        -0.0650 
      6 N6          3.4170   14.2640   43.0660 N.ar      1 LIG        -0.8390 
      7 C7          3.5370   14.1190   44.4090 C.ar      1 LIG         1.0420 
      8 N8          2.9160   14.9900   45.2130 N.pl3     1 LIG        -0.9200 
      9 N9          4.2530   13.0910   44.9400 N.ar      1 LIG        -0.8390 
     10 H11         6.0916   11.3792   45.7329 H         1 LIG         0.0600 
     11 H12         5.0698   10.1993   44.8951 H         1 LIG         0.0600 
     12 H13         6.5362   10.8121   44.1270 H         1 LIG         0.0600 
     13 H3          5.2754   11.6372   42.0686 H         1 LIG         0.1970 
     14 H51         3.8455   14.6777   40.4862 H         1 LIG         0.0600 
     15 H52         4.6467   13.1385   40.1647 H         1 LIG         0.0600 
     16 H53         2.8949   13.1929   40.3801 H         1 LIG         0.0600 
     17 H81         3.0484   14.9409   46.2123 H         1 LIG         0.3600 
     18 H82         2.4325   15.7892   44.8241 H         1 LIG         0.3600 
@<TRIPOS>BOND
     1    1    2 1    
     2    1   10 1    
     3    1   11 1    
     4    1   12 1    
     5    2    3 ar   
     6    2    9 ar   
     7    3    4 ar   
     8    3   13 1    
     9    4    5 1    
    10    4    6 ar   
    11    5   14 1    
    12    5   15 1    
    13    5   16 1    
    14    6    7 ar   
    15    7    8 1    
    16    7    9 ar   
    17    8   17 1    
    18    8   18 1    
@<TRIPOS>SUBSTRUCTURE
     1 LIG         1 GROUP             0       ****    0 ROOT    
