@<TRIPOS>MOLECULE
:4de3_ligand
30   32    1
SMALL
USER_CHARGES


@<TRIPOS>ATOM
      1 O21        -8.8980   55.8690   13.4010 O.2       1 LIG        -0.5000 
      2 C7         -8.6180   55.8480   12.1980 C.2       1 LIG         0.6150 
      3 C4         -9.3210   56.8030   11.2640 C.ar      1 LIG        -0.1150 
      4 C3         -9.0510   56.7520    9.8870 C.ar      1 LIG        -0.1150 
      5 C2         -9.6910   57.6170    9.0100 C.ar      1 LIG        -0.1150 
      6 C5        -10.2150   57.7410   11.7670 C.ar      1 LIG        -0.1150 
      7 C6        -10.8420   58.6270   10.8870 C.ar      1 LIG         0.2000 
      8 BR1       -12.0240   59.9130   11.5790 Br        1 LIG        -0.2000 
      9 C1        -10.5960   58.5780    9.5220 C.ar      1 LIG        -0.1150 
     10 N8         -7.7270   55.0220   11.6640 N.am      1 LIG        -0.3850 
     11 C9         -6.7450   54.3770   12.4450 C.ar      1 LIG         0.0850 
     12 C14        -7.1350   53.7290   13.6200 C.ar      1 LIG        -0.1150 
     13 C13        -6.1890   53.0690   14.4150 C.ar      1 LIG        -0.1150 
     14 C12        -4.8380   52.9950   14.0690 C.ar      1 LIG        -0.1150 
     15 C11        -4.4380   53.6120   12.8800 C.ar      1 LIG         0.0932 
     16 C10        -5.3880   54.2990   12.0990 C.ar      1 LIG        -0.1150 
     17 C15        -3.0910   53.5560   12.5310 C.ar      1 LIG         0.3192 
     18 N19        -2.5220   53.9710   11.4090 N.2       1 LIG        -0.5168 
     19 N18        -1.1770   53.7360   11.4080 N.ar      1 LIG        -0.1894 
     20 N17        -0.8980   53.1040   12.5660 N.ar      1 LIG        -0.1894 
     21 N16        -2.1100   53.0170   13.2490 N.ar      1 LIG        -0.5168 
     22 H3         -8.3579   56.0400    9.4643 H         1 LIG         0.1150 
     23 H2         -9.4937   57.5695    7.9487 H         1 LIG         0.1150 
     24 H5        -10.4195   57.8061   12.8230 H         1 LIG         0.1150 
     25 H1        -11.1130   59.2586    8.8710 H         1 LIG         0.1150 
     26 HN8        -7.5343   55.1194   10.6784 H         1 LIG         0.3000 
     27 H14        -8.1692   53.6659   13.9195 H         1 LIG         0.1150 
     28 H13        -6.5168   52.5783   15.3189 H         1 LIG         0.1150 
     29 H12        -4.1652   52.4515   14.7071 H         1 LIG         0.1150 
     30 H10        -5.0752   54.7961   11.1955 H         1 LIG         0.1150 
@<TRIPOS>BOND
     1    1    2 2    
     2    2    3 1    
     3    2   10 am   BACKBONE|DICT|INTERRES
     4    3    4 ar   
     5    3    6 ar   
     6    4    5 ar   
     7    4   22 1    
     8    5    9 ar   
     9    5   23 1    
    10    6    7 ar   
    11    6   24 1    
    12    7    8 1    
    13    7    9 ar   
    14    9   25 1    
    15   10   11 1    
    16   10   26 1    
    17   11   12 ar   
    18   11   16 ar   
    19   12   13 ar   
    20   12   27 1    
    21   13   14 ar   
    22   13   28 1    
    23   14   15 ar   
    24   14   29 1    
    25   15   16 ar   
    26   15   17 1    
    27   16   30 1    
    28   17   18 ar   
    29   17   21 ar   
    30   18   19 ar   
    31   19   20 ar   
    32   20   21 ar   
@<TRIPOS>SUBSTRUCTURE
     1 LIG         1 GROUP             0       ****    0 ROOT    
