@<TRIPOS>MOLECULE
:3d4z_ligand
27   28    1
SMALL
USER_CHARGES


@<TRIPOS>ATOM
      1 C1         30.7970   65.9420    9.6970 C.ar      1 LIG         0.2228 
      2 C2         31.9610   65.3180    8.9250 C.3       1 LIG         0.3200 
      3 N10        29.8090   66.5940    8.9820 N.pl3     1 LIG         0.0709 
      4 C3         32.3650   66.3030    7.8260 C.3       1 LIG         0.2050 
      5 C4         31.1990   66.4350    6.8650 C.3       1 LIG         0.2050 
      6 C5         29.8750   66.8470    7.5350 C.3       1 LIG         0.0625 
      7 C6         28.7490   66.0830    6.7850 C.3       1 LIG         0.1450 
      8 C7         29.3520   66.6560   11.1160 C.ar      1 LIG         0.0554 
      9 C8         28.8980   66.9960    9.9080 C.ar      1 LIG        -0.1741 
     10 N1         30.5160   65.9940   10.9800 N.pl3     1 LIG        -0.2324 
     11 O3         33.4910   65.6800    7.1400 O.3       1 LIG        -0.5750 
     12 O2         33.0570   64.9380    9.7170 O.3       1 LIG        -0.5750 
     13 O4         31.4880   67.4510    5.8940 O.3       1 LIG        -0.6830 
     14 O6         27.4750   66.5040    7.2990 O.3       1 LIG        -0.6830 
     15 H2         31.4126   64.4657    8.5608 H         1 LIG         0.0600 
     16 H3         32.6735   67.2606    8.2431 H         1 LIG         0.0600 
     17 H4         31.0687   65.4857    6.3430 H         1 LIG         0.0600 
     18 H5         29.7121   67.9177    7.4211 H         1 LIG         0.0600 
     19 H61        28.8541   65.0071    6.8992 H         1 LIG         0.0600 
     20 H62        28.7795   66.3018    5.7176 H         1 LIG         0.0600 
     21 H7         28.9228   66.8299   12.0922 H         1 LIG         0.1822 
     22 H8         28.0044   67.5380    9.6464 H         1 LIG         0.2580 
     23 HN1        31.1044   65.6661   11.7511 H         1 LIG         0.3797 
     24 HO3        33.2641   65.5128    6.2470 H         1 LIG         0.3100 
     25 HO2        33.2263   65.5141   10.4396 H         1 LIG         0.3100 
     26 HO4        32.3828   67.3634    5.5730 H         1 LIG         0.4180 
     27 HO6        27.4364   67.4527    7.2818 H         1 LIG         0.4180 
@<TRIPOS>BOND
     1    1    2 1    
     2    1    3 ar   
     3    1   10 ar   
     4    2    4 1    
     5    2   12 1    
     6    2   15 1    
     7    3    6 1    
     8    3    9 ar   
     9    4    5 1    
    10    4   11 1    
    11    4   16 1    
    12    5    6 1    
    13    5   13 1    
    14    5   17 1    
    15    6    7 1    
    16    6   18 1    
    17    7   14 1    
    18    7   19 1    
    19    7   20 1    
    20    8    9 ar   
    21    8   10 ar   
    22    8   21 1    
    23    9   22 1    
    24   10   23 1    
    25   11   24 1    
    26   12   25 1    
    27   13   26 1    
    28   14   27 1    
@<TRIPOS>SUBSTRUCTURE
     1 LIG         1 GROUP             0       ****    0 ROOT    
