@<TRIPOS>MOLECULE
:1ydt_ligand
48   50    1
SMALL
USER_CHARGES


@<TRIPOS>ATOM
      1 C1          6.9040   10.2450    2.8280 C.ar      1 LIG        -0.2361 
      2 C2          7.0150   10.2910    1.4300 C.ar      1 LIG        -0.0460 
      3 C3          5.8710   10.2380    0.6260 C.ar      1 LIG        -0.1533 
      4 C4          4.6000   10.1420    1.2050 C.ar      1 LIG        -0.1818 
      5 C5          4.4810   10.0960    2.5980 C.ar      1 LIG        -0.2505 
      6 C6          3.2200   10.0000    3.1920 C.ar      1 LIG         0.3967 
      7 N7          3.1000    9.9540    4.5420 N.ar      1 LIG        -0.6841 
      8 C8          4.1820   10.0000    5.3550 C.ar      1 LIG         0.4845 
      9 C9          5.4670   10.0980    4.8070 C.ar      1 LIG        -0.7531 
     10 C10         5.6280   10.1480    3.4140 C.ar      1 LIG         0.6486 
     11 S           8.3850   10.3200    3.8070 S.o2      1 LIG         0.9819 
     12 O1          8.1680   11.2390    4.8980 O.2       1 LIG        -0.4680 
     13 O2          9.5150   10.5330    2.9260 O.2       1 LIG        -0.4680 
     14 N1'         8.4220    8.8250    4.4030 N.pl3     1 LIG        -0.6527 
     15 C2'         8.8740    7.7060    3.5960 C.3       1 LIG         0.0955 
     16 C3'        10.1930    8.0520    2.8860 C.3       1 LIG         0.1700 
     17 N4'        11.2740    7.1790    3.3600 N.4       1 LIG        -0.2000 
     18 C5'        12.4220    7.9960    3.7960 C.3       1 LIG         0.1700 
     19 C6'        12.8320    8.9590    2.7140 C.2       1 LIG        -0.1150 
     20 C7'        12.8310   10.2810    2.9320 C.2       1 LIG        -0.1150 
     21 C1'        13.2360   11.2610    1.8630 C.ar      1 LIG         0.0000 
     22 C2'        14.0680   10.8820    0.7990 C.ar      1 LIG        -0.1150 
     23 C3'        14.4270   11.8150   -0.1830 C.ar      1 LIG        -0.1150 
     24 C4'        13.9540   13.1310   -0.1000 C.ar      1 LIG         0.2000 
     25 BR4'       14.4220   14.3880   -1.3880 Br        1 LIG        -0.2000 
     26 C5'        13.1280   13.5110    0.9560 C.ar      1 LIG        -0.1150 
     27 C6'        12.7720   12.5760    1.9320 C.ar      1 LIG        -0.1150 
     28 H2          7.9834   10.3581    0.9576 H         1 LIG         0.1382 
     29 H3          5.9727   10.2645   -0.4481 H         1 LIG         0.1414 
     30 H4          3.7229   10.1015    0.5743 H         1 LIG         0.1598 
     31 H6          2.4003    9.7562    2.5875 H         1 LIG         0.0566 
     32 H8          4.0040    9.9983    6.4136 H         1 LIG         0.0456 
     33 H9          6.2786   10.0999    5.5120 H         1 LIG         0.2410 
     34 HN1'        8.6977    8.7941    5.3892 H         1 LIG         0.3572 
     35 H2'1        8.1234    7.4864    2.8418 H         1 LIG         0.0733 
     36 H2'2        8.9556    6.8232    4.2312 H         1 LIG         0.0733 
     37 H3'1       10.5307    8.8558    3.4865 H         1 LIG         0.0600 
     38 H3'2       10.1695    8.2820    1.8195 H         1 LIG         0.0600 
     39 H4'1       11.5557    6.5616    2.6100 H         1 LIG         0.3100 
     40 H4'2       10.9549    6.6120    4.1355 H         1 LIG         0.3100 
     41 H5'1       13.2575    7.3248    3.9958 H         1 LIG         0.0600 
     42 H5'2       12.2124    8.5044    4.7406 H         1 LIG         0.0600 
     43 H6'        13.1137    8.5302    1.7637 H         1 LIG         0.1150 
     44 H7'        12.5401   10.6833    3.8913 H         1 LIG         0.1150 
     45 H2'        14.4576    9.8783    0.7217 H         1 LIG         0.1150 
     46 H3'        15.0713   11.5202   -0.9982 H         1 LIG         0.1150 
     47 H5'        12.7795   14.5297    1.0321 H         1 LIG         0.1150 
     48 H6'        12.2193   12.8908    2.8004 H         1 LIG         0.1150 
@<TRIPOS>BOND
     1    1   11 1    
     2    1   10 ar   
     3    1    2 ar   
     4    2    3 ar   
     5    2   28 1    
     6    3    4 ar   
     7    3   29 1    
     8    4    5 ar   
     9    4   30 1    
    10    5   10 ar   
    11    5    6 ar   
    12    6    7 ar   
    13    6   31 1    
    14    7    8 ar   
    15    8    9 ar   
    16    8   32 1    
    17    9   10 ar   
    18    9   33 1    
    19   11   14 1    
    20   11   13 2    
    21   11   12 2    
    22   14   15 1    
    23   14   34 1    
    24   15   16 1    
    25   15   35 1    
    26   15   36 1    
    27   16   17 1    
    28   16   37 1    
    29   16   38 1    
    30   17   18 1    
    31   17   39 1    
    32   17   40 1    
    33   18   19 1    
    34   18   41 1    
    35   18   42 1    
    36   19   20 2    
    37   19   43 1    
    38   20   21 1    
    39   20   44 1    
    40   21   27 ar   
    41   21   22 ar   
    42   22   23 ar   
    43   22   45 1    
    44   23   24 ar   
    45   23   46 1    
    46   24   26 ar   
    47   24   25 1    
    48   26   27 ar   
    49   26   47 1    
    50   27   48 1    
@<TRIPOS>SUBSTRUCTURE
     1 LIG         1 GROUP             0       ****    0 ROOT    
