@<TRIPOS>MOLECULE
:2xbv_ligand
57   60    1
SMALL
USER_CHARGES


@<TRIPOS>ATOM
      1 C1         10.4390   66.7500    4.0020 C.3       1 LIG        -0.0600 
      2 C2          9.6930   66.3310    2.7260 C.3       1 LIG        -0.0600 
      3 C3          8.9300   67.6000    2.2890 C.3       1 LIG         0.0900 
      4 N4          9.8580   68.6860    2.7360 N.3       1 LIG        -0.6300 
      5 C5         10.4080   68.2910    4.0560 C.3       1 LIG         0.0900 
      6 C6         11.8290   66.1690    4.0750 C.2       1 LIG         0.5000 
      7 C7          8.7410   65.1940    3.0300 C.2       1 LIG         0.5000 
      8 N8          9.2500   64.0040    2.8570 N.am      1 LIG        -0.3850 
      9 O9          7.6110   65.3690    3.4600 O.2       1 LIG        -0.5000 
     10 O10        12.5110   65.9800    3.0790 O.2       1 LIG        -0.5000 
     11 N11        12.3170   65.9790    5.3220 N.am      1 LIG        -0.3850 
     12 C12        13.4790   65.3160    5.7100 C.ar      1 LIG         0.5700 
     13 N13        14.0290   64.4140    4.8800 N.ar      1 LIG        -0.6780 
     14 C14        15.5570   63.6920    6.5820 C.ar      1 LIG        -0.1120 
     15 C15        14.9800   64.6160    7.4750 C.ar      1 LIG         0.2270 
     16 C16        15.0620   63.6180    5.2650 C.ar      1 LIG         0.4730 
     17 C17        13.9220   65.4170    7.0370 C.ar      1 LIG        -0.4470 
     18 CL1        16.8030   62.6230    7.1470 Cl        1 LIG        -0.1800 
     19 C19         8.5620   62.7810    3.0130 C.ar      1 LIG         0.0850 
     20 C20         7.7350   62.4770    4.1000 C.ar      1 LIG        -0.1150 
     21 C21         7.4550   60.2760    3.1560 C.ar      1 LIG        -0.0383 
     22 C22         8.2910   60.5860    2.0730 C.ar      1 LIG        -0.1150 
     23 C23         7.1530   61.2070    4.1550 C.ar      1 LIG        -0.1150 
     24 C24         8.8070   61.8870    2.0080 C.ar      1 LIG         0.2200 
     25 N25         6.9000   58.9610    3.1550 N.pl3     1 LIG         0.1115 
     26 C26         7.4010   57.9920    4.0380 C.ar      1 LIG        -0.1882 
     27 C27         5.8730   56.3680    3.1560 C.ar      1 LIG        -0.1150 
     28 C28         5.3630   57.3040    2.2830 C.ar      1 LIG        -0.1717 
     29 C29         6.9060   56.7230    4.0320 C.ar      1 LIG        -0.1150 
     30 C30         5.8690   58.6530    2.2590 C.ar      1 LIG         0.5567 
     31 O31         5.4450   59.5080    1.4710 O.2       1 LIG        -0.5000 
     32 F32         9.6300   62.2060    0.9980 F         1 LIG        -0.2200 
     33 C33         9.1530   69.9740    2.8400 C.3       1 LIG         0.2259 
     34 C34        10.1310   71.1500    2.8390 C.3       1 LIG        -0.0459 
     35 F35        11.1320   71.0170    3.8060 F         1 LIG        -0.1200 
     36 F36        10.7900   71.1220    1.6280 F         1 LIG        -0.1200 
     37 H1          9.8985   66.4103    4.8870 H         1 LIG         0.0600 
     38 H2         10.3615   66.0515    1.9094 H         1 LIG         0.0600 
     39 H31         7.9751   67.7082    2.8060 H         1 LIG         0.0600 
     40 H32         8.7508   67.6417    1.2146 H         1 LIG         0.0600 
     41 H51        11.3995   68.7171    4.1886 H         1 LIG         0.0600 
     42 H52         9.7706   68.6239    4.8749 H         1 LIG         0.0600 
     43 HN8        10.1528   63.9543    2.4070 H         1 LIG         0.3000 
     44 HN11       11.7478   66.3306    6.0829 H         1 LIG         0.3000 
     45 H15        15.3184   64.6678    8.4936 H         1 LIG         0.0650 
     46 H16        15.4496   62.9104    4.5483 H         1 LIG         0.0120 
     47 H17        13.4467   66.0974    7.7287 H         1 LIG         0.1550 
     48 H20         7.5216   63.1935    4.8770 H         1 LIG         0.1150 
     49 H22         8.5132   59.8620    1.3096 H         1 LIG         0.1150 
     50 H23         6.5016   60.9423    4.9737 H         1 LIG         0.1150 
     51 H26         8.1713   58.3329    4.6909 H         1 LIG         0.1150 
     52 H27         5.4729   55.3660    3.1690 H         1 LIG         0.1150 
     53 H28         4.5669   57.0260    1.6080 H         1 LIG         0.1150 
     54 H29         7.3087   55.9883    4.7142 H         1 LIG         0.1150 
     55 H331        8.5155   69.9957    3.7251 H         1 LIG         0.0600 
     56 H332        8.4913   70.0843    1.9799 H         1 LIG         0.0600 
     57 H34         9.6282   72.1090    2.9375 H         1 LIG         0.1500 
@<TRIPOS>BOND
     1    1    2 1    
     2    1    5 1    
     3    1    6 1    
     4    1   37 1    
     5    2    3 1    
     6    2    7 1    
     7    2   38 1    
     8    3    4 1    
     9    3   39 1    
    10    3   40 1    
    11    4    5 1    
    12    4   33 1    
    13    5   41 1    
    14    5   42 1    
    15    6   10 2    
    16    6   11 am   BACKBONE|DICT|INTERRES
    17    7    8 am   BACKBONE|DICT|INTERRES
    18    7    9 2    
    19    8   19 1    
    20    8   43 1    
    21   11   12 1    
    22   11   44 1    
    23   12   13 ar   
    24   12   17 ar   
    25   13   16 ar   
    26   14   15 ar   
    27   14   16 ar   
    28   14   18 1    
    29   15   17 ar   
    30   15   45 1    
    31   16   46 1    
    32   17   47 1    
    33   19   20 ar   
    34   19   24 ar   
    35   20   23 ar   
    36   20   48 1    
    37   21   22 ar   
    38   21   23 ar   
    39   21   25 1    
    40   22   24 ar   
    41   22   49 1    
    42   23   50 1    
    43   24   32 1    
    44   25   26 ar   
    45   25   30 ar   
    46   26   29 ar   
    47   26   51 1    
    48   27   28 ar   
    49   27   29 ar   
    50   27   52 1    
    51   28   30 ar   
    52   28   53 1    
    53   29   54 1    
    54   30   31 2    
    55   33   34 1    
    56   33   55 1    
    57   33   56 1    
    58   34   35 1    
    59   34   36 1    
    60   34   57 1    
@<TRIPOS>SUBSTRUCTURE
     1 LIG         1 GROUP             0       ****    0 ROOT    
