:2xbv_ligand
                    3D
 Schrodinger Suite 2020-1.
 57 60  0  0  1  0            999 V2000
   10.4390   66.7500    4.0020 C   0  0  2  0  0  0
    9.6930   66.3310    2.7260 C   0  0  2  0  0  0
    8.9300   67.6000    2.2890 C   0  0  0  0  0  0
    9.8580   68.6860    2.7360 N   0  0  2  0  0  0
   10.4080   68.2910    4.0560 C   0  0  0  0  0  0
   11.8290   66.1690    4.0750 C   0  0  0  0  0  0
    8.7410   65.1940    3.0300 C   0  0  0  0  0  0
    9.2500   64.0040    2.8570 N   0  0  0  0  0  0
    7.6110   65.3690    3.4600 O   0  0  0  0  0  0
   12.5110   65.9800    3.0790 O   0  0  0  0  0  0
   12.3170   65.9790    5.3220 N   0  0  0  0  0  0
   13.4790   65.3160    5.7100 C   0  0  0  0  0  0
   14.0290   64.4140    4.8800 N   0  0  0  0  0  0
   15.5570   63.6920    6.5820 C   0  0  0  0  0  0
   14.9800   64.6160    7.4750 C   0  0  0  0  0  0
   15.0620   63.6180    5.2650 C   0  0  0  0  0  0
   13.9220   65.4170    7.0370 C   0  0  0  0  0  0
   16.8030   62.6230    7.1470 Cl  0  0  0  0  0  0
    8.5620   62.7810    3.0130 C   0  0  0  0  0  0
    7.7350   62.4770    4.1000 C   0  0  0  0  0  0
    7.4550   60.2760    3.1560 C   0  0  0  0  0  0
    8.2910   60.5860    2.0730 C   0  0  0  0  0  0
    7.1530   61.2070    4.1550 C   0  0  0  0  0  0
    8.8070   61.8870    2.0080 C   0  0  0  0  0  0
    6.9000   58.9610    3.1550 N   0  0  0  0  0  0
    7.4010   57.9920    4.0380 C   0  0  0  0  0  0
    5.8730   56.3680    3.1560 C   0  0  0  0  0  0
    5.3630   57.3040    2.2830 C   0  0  0  0  0  0
    6.9060   56.7230    4.0320 C   0  0  0  0  0  0
    5.8690   58.6530    2.2590 C   0  0  0  0  0  0
    5.4450   59.5080    1.4710 O   0  0  0  0  0  0
    9.6300   62.2060    0.9980 F   0  0  0  0  0  0
    9.1530   69.9740    2.8400 C   0  0  0  0  0  0
   10.1310   71.1500    2.8390 C   0  0  0  0  0  0
   11.1320   71.0170    3.8060 F   0  0  0  0  0  0
   10.7900   71.1220    1.6280 F   0  0  0  0  0  0
    9.8985   66.4103    4.8870 H   0  0  0  0  0  0
   10.3615   66.0515    1.9094 H   0  0  0  0  0  0
    7.9751   67.7082    2.8060 H   0  0  0  0  0  0
    8.7508   67.6417    1.2146 H   0  0  0  0  0  0
   11.3995   68.7171    4.1886 H   0  0  0  0  0  0
    9.7706   68.6239    4.8749 H   0  0  0  0  0  0
   10.1528   63.9543    2.4070 H   0  0  0  0  0  0
   11.7478   66.3306    6.0829 H   0  0  0  0  0  0
   15.3184   64.6678    8.4936 H   0  0  0  0  0  0
   15.4496   62.9104    4.5483 H   0  0  0  0  0  0
   13.4467   66.0974    7.7287 H   0  0  0  0  0  0
    7.5216   63.1935    4.8770 H   0  0  0  0  0  0
    8.5132   59.8620    1.3096 H   0  0  0  0  0  0
    6.5016   60.9423    4.9737 H   0  0  0  0  0  0
    8.1713   58.3329    4.6909 H   0  0  0  0  0  0
    5.4729   55.3660    3.1690 H   0  0  0  0  0  0
    4.5669   57.0260    1.6080 H   0  0  0  0  0  0
    7.3087   55.9883    4.7142 H   0  0  0  0  0  0
    8.5155   69.9957    3.7251 H   0  0  0  0  0  0
    8.4913   70.0843    1.9799 H   0  0  0  0  0  0
    9.6282   72.1090    2.9375 H   0  0  0  0  0  0
  1  2  1  0  0  0
  1  5  1  0  0  0
  1  6  1  0  0  0
  1 37  1  0  0  0
  2  3  1  0  0  0
  2  7  1  0  0  0
  2 38  1  0  0  0
  3  4  1  0  0  0
  3 39  1  0  0  0
  3 40  1  0  0  0
  4  5  1  0  0  0
  4 33  1  0  0  0
  5 41  1  0  0  0
  5 42  1  0  0  0
  6 10  2  0  0  0
  6 11  1  0  0  0
  7  8  1  0  0  0
  7  9  2  0  0  0
  8 19  1  0  0  0
  8 43  1  0  0  0
 11 12  1  0  0  0
 11 44  1  0  0  0
 12 13  2  0  0  0
 12 17  1  0  0  0
 13 16  1  0  0  0
 14 15  1  0  0  0
 14 16  2  0  0  0
 14 18  1  0  0  0
 15 17  2  0  0  0
 15 45  1  0  0  0
 16 46  1  0  0  0
 17 47  1  0  0  0
 19 20  2  0  0  0
 19 24  1  0  0  0
 20 23  1  0  0  0
 20 48  1  0  0  0
 21 22  1  0  0  0
 21 23  2  0  0  0
 21 25  1  0  0  0
 22 24  2  0  0  0
 22 49  1  0  0  0
 23 50  1  0  0  0
 24 32  1  0  0  0
 25 26  1  0  0  0
 25 30  1  0  0  0
 26 29  2  0  0  0
 26 51  1  0  0  0
 27 28  2  0  0  0
 27 29  1  0  0  0
 27 52  1  0  0  0
 28 30  1  0  0  0
 28 53  1  0  0  0
 29 54  1  0  0  0
 30 31  2  0  0  0
 33 34  1  0  0  0
 33 55  1  0  0  0
 33 56  1  0  0  0
 34 35  1  0  0  0
 34 36  1  0  0  0
 34 57  1  0  0  0
M  END
> <s_pdb_PDB_ID>


> <s_pdb_PDB_CLASSIFICATION>
2XBV_PROTEIN

> <s_pdb_PDB_format_version>
3.0

> <b_ppw_prepared>
1

> <s_ppw_prepared_with_version>
2020-1

> <b_ppw_created_disulfur>
1

> <s_ppw_het_states>
eJxdlEFuxCAMAL8S5ZxWQMAm/UqVH6x662m1fy82Yaekh8oM4HGwtc81rV/Ld/tLOeu2hHNbLKyExzssgTASJsKdMBMWQiHEVrAVbIJNsAk2wSbYBJtgE2yCTbApNsWm2BSbYlNsik2xKTbFVrFVbNVtFl/d6I2IVyMc2MPPIAGqXzluwLoywOEgvIGFU9IOlByWvzcuTUA5sTvId1C4kg1YZ8aJXjofV3qlB1ccCKX7nrc/Mh99NGaQ3jkuQGF2uCcdJ4oDuQHlgXzPB2UAL13qHVB6B/qvsDqSJoatj0Zk5Pq0zUAA/urKm6o/so3iDHhk35ty+LfYcI4r/qaVr61eWI134IU1Ej5Djm33uVpD2i/HRyPbspZYYlu1RQixr9NY769t+fl9PPr/83z9AZPf7AQ=

> <r_ff_Potential_Energy-OPLS3e>
-142410.413964867

> <r_ff_RMS_Derivative-OPLS3e>
0.0473260921390324

> <b_ff_Minimization_Converged-OPLS3e>
1

> <r_i_Potential_Energy-OPLS_2005>
-7907.36163664152

> <r_i_RMS_Derivative-OPLS_2005>
0.0489443349136383

> <r_i_Max_Derivative-OPLS_2005>
1.47451296805939

> <r_i_Stretch_Energy-OPLS_2005>
7.55802395350475

> <r_i_Bend_Energy-OPLS_2005>
173.769311876624

> <r_i_LJ-14_Energy-OPLS_2005>
378.252522341078

> <r_i_El-14_Energy-OPLS_2005>
-295.251721258629

> <r_i_Van_der_Waals_Energy-OPLS_2005>
-634.597800235097

> <r_i_Electrostatic_Energy-OPLS_2005>
-7648.00281160298

> <r_i_Dihedral_Energy-OPLS_2005>
110.910838283984

> <r_i_target_temperature>
298

> <s_user_Residue_ID>
_:1

$$$$
