@<TRIPOS>MOLECULE
:3kwa_ligand
44   43    1
SMALL
USER_CHARGES


@<TRIPOS>ATOM
      1 N1         -6.0090    0.3650   17.8620 N.4       1 LIG        -0.3000 
      2 C2         -5.4920    1.7110   17.8750 C.3       1 LIG         0.1900 
      3 C3         -6.6490    2.6550   17.6320 C.3       1 LIG        -0.1200 
      4 C4         -6.4610    3.4630   16.3440 C.3       1 LIG         0.1700 
      5 N5         -5.9940    2.6970   15.2120 N.4       1 LIG        -0.2000 
      6 C6         -4.5760    2.3910   15.1380 C.3       1 LIG         0.1700 
      7 C7         -4.1760    1.5000   13.9810 C.3       1 LIG        -0.1200 
      8 C8         -4.6120    2.2790   12.7530 C.3       1 LIG        -0.1200 
      9 C9         -5.2030    3.5720   13.2440 C.3       1 LIG         0.1700 
     10 N10        -4.2130    4.3280   13.9730 N.4       1 LIG        -0.2000 
     11 C11        -4.4170    5.6670   14.4380 C.3       1 LIG         0.1700 
     12 C12        -3.2020    6.1340   15.2130 C.3       1 LIG        -0.1200 
     13 C13        -1.8940    5.8300   14.4860 C.3       1 LIG         0.1900 
     14 N14        -1.1910    4.7290   15.1110 N.4       1 LIG        -0.3000 
     15 H11        -5.2542   -0.3060   17.9554 H         1 LIG         0.3300 
     16 H12        -6.6406    0.2531   18.6444 H         1 LIG         0.3300 
     17 H13        -6.5226    0.2104   17.0128 H         1 LIG         0.3300 
     18 H21        -4.4658    1.9653   17.6465 H         1 LIG         0.0600 
     19 H22        -5.5234    1.6436   18.9545 H         1 LIG         0.0600 
     20 H31        -6.7254    3.3643   18.4567 H         1 LIG         0.0600 
     21 H32        -7.6010    2.1222   17.5854 H         1 LIG         0.0600 
     22 H41        -5.9965    4.4241   16.4589 H         1 LIG         0.0600 
     23 H42        -7.4601    3.7294   16.0625 H         1 LIG         0.0600 
     24 H51        -6.2408    3.2320   14.3933 H         1 LIG         0.3100 
     25 H52        -6.5163    1.8359   15.1718 H         1 LIG         0.3100 
     26 H61        -4.5236    1.5085   15.7514 H         1 LIG         0.0600 
     27 H62        -3.8309    2.9391   15.7283 H         1 LIG         0.0600 
     28 H71        -4.8788    0.6647   13.9997 H         1 LIG         0.0600 
     29 H72        -3.3045    0.9113   13.8623 H         1 LIG         0.0600 
     30 H81        -5.3282    1.7221   12.1461 H         1 LIG         0.0600 
     31 H82        -3.7444    2.4669   12.1172 H         1 LIG         0.0600 
     32 H91        -6.2693    3.7836   13.3237 H         1 LIG         0.0600 
     33 H92        -5.1348    4.1419   12.3162 H         1 LIG         0.0600 
     34 H101       -3.4055    4.3619   13.3662 H         1 LIG         0.3100 
     35 H102       -3.9575    3.7874   14.7823 H         1 LIG         0.3100 
     36 H111       -5.3260    5.7751   15.0225 H         1 LIG         0.0600 
     37 H112       -4.5534    6.3066   13.5647 H         1 LIG         0.0600 
     38 H121       -3.1750    5.5655   16.1058 H         1 LIG         0.0600 
     39 H122       -3.2823    7.1897   15.4743 H         1 LIG         0.0600 
     40 H131       -1.2477    6.7054   14.5545 H         1 LIG         0.0600 
     41 H132       -2.0239    5.6472   13.4186 H         1 LIG         0.0600 
     42 H141       -0.2972    4.5955   14.6517 H         1 LIG         0.3300 
     43 H142       -1.0193    4.9397   16.0834 H         1 LIG         0.3300 
     44 H143       -1.7089    3.8661   15.0434 H         1 LIG         0.3300 
@<TRIPOS>BOND
     1    1    2 1    
     2    1   15 1    
     3    1   16 1    
     4    1   17 1    
     5    2    3 1    
     6    2   18 1    
     7    2   19 1    
     8    3    4 1    
     9    3   20 1    
    10    3   21 1    
    11    4    5 1    
    12    4   22 1    
    13    4   23 1    
    14    5    6 1    
    15    5   24 1    
    16    5   25 1    
    17    6    7 1    
    18    6   26 1    
    19    6   27 1    
    20    7    8 1    
    21    7   28 1    
    22    7   29 1    
    23    8    9 1    
    24    8   30 1    
    25    8   31 1    
    26    9   10 1    
    27    9   32 1    
    28    9   33 1    
    29   10   11 1    
    30   10   34 1    
    31   10   35 1    
    32   11   12 1    
    33   11   36 1    
    34   11   37 1    
    35   12   13 1    
    36   12   38 1    
    37   12   39 1    
    38   13   14 1    
    39   13   40 1    
    40   13   41 1    
    41   14   42 1    
    42   14   43 1    
    43   14   44 1    
@<TRIPOS>SUBSTRUCTURE
     1 LIG         1 GROUP             0       ****    0 ROOT    
