@<TRIPOS>MOLECULE
:2wnc_ligand
42   45    1
SMALL
USER_CHARGES


@<TRIPOS>ATOM
      1 C12       -72.2180  -51.6000  -72.9270 C.ar      1 LIG        -0.2340 
      2 O4        -73.1540  -50.7690  -75.0260 O.2       1 LIG        -0.4300 
      3 C8        -70.6700  -44.5530  -73.8420 C.3       1 LIG         0.0900 
      4 C9        -72.6550  -50.5780  -73.9230 C.2       1 LIG         0.6250 
      5 C11       -71.5630  -51.4310  -71.7280 C.ar      1 LIG        -0.1072 
      6 O3        -72.4460  -49.2390  -73.4180 O.3       1 LIG        -0.3300 
      7 C7        -69.9780  -47.7650  -73.3350 C.3       1 LIG        -0.1200 
      8 C6        -70.8180  -47.3390  -72.1030 C.3       1 LIG        -0.1200 
      9 N1        -71.1260  -45.9070  -73.7410 N.4       1 LIG        -0.1000 
     10 C5        -71.9140  -46.3630  -72.6140 C.3       1 LIG         0.2100 
     11 C4        -73.1770  -47.0530  -73.1350 C.3       1 LIG        -0.1200 
     12 C1        -70.5930  -47.0150  -74.5390 C.3       1 LIG         0.2100 
     13 C2        -71.7370  -47.7920  -75.1820 C.3       1 LIG        -0.1200 
     14 C3        -72.8620  -48.1360  -74.1820 C.3       1 LIG         0.2200 
     15 C13       -72.5080  -55.8510  -72.7620 C.ar      1 LIG        -0.0888 
     16 C15       -71.8770  -53.6680  -71.9070 C.ar      1 LIG         0.2860 
     17 C16       -72.4530  -53.0640  -73.1150 C.ar      1 LIG         0.1233 
     18 C17       -73.0200  -53.8480  -74.0950 C.ar      1 LIG        -0.2243 
     19 C18       -73.0560  -55.2470  -73.9010 C.ar      1 LIG        -0.2222 
     20 N10       -71.3830  -52.6580  -71.1420 N.pl3     1 LIG        -0.4786 
     21 C21       -71.9120  -55.0570  -71.7660 C.ar      1 LIG        -0.3541 
     22 H81       -70.6274  -44.2385  -74.8840 H         1 LIG         0.0600 
     23 H82       -71.3272  -43.8693  -73.3075 H         1 LIG         0.0600 
     24 H83       -69.6710  -44.4609  -73.4150 H         1 LIG         0.0600 
     25 H11       -71.1965  -50.5284  -71.2641 H         1 LIG         0.1929 
     26 H71       -69.9400  -48.8442  -73.4791 H         1 LIG         0.0600 
     27 H72       -68.9498  -47.4409  -73.1842 H         1 LIG         0.0600 
     28 H61       -70.1671  -46.8109  -71.4041 H         1 LIG         0.0600 
     29 H62       -71.2281  -48.1771  -71.5408 H         1 LIG         0.0600 
     30 HN1       -71.9174  -45.7215  -74.3441 H         1 LIG         0.2900 
     31 H5        -72.1339  -45.5781  -71.8966 H         1 LIG         0.0600 
     32 H41       -73.8419  -46.3127  -73.5703 H         1 LIG         0.0600 
     33 H42       -73.7389  -47.4824  -72.3043 H         1 LIG         0.0600 
     34 H1        -69.8399  -46.6985  -75.2579 H         1 LIG         0.0600 
     35 H21       -71.3603  -48.6849  -75.6806 H         1 LIG         0.0600 
     36 H22       -72.1682  -47.1771  -75.9707 H         1 LIG         0.0600 
     37 H3        -73.7789  -48.3859  -74.7174 H         1 LIG         0.0300 
     38 H13       -72.5427  -56.9247  -72.6478 H         1 LIG         0.1359 
     39 H17       -73.4398  -53.4082  -74.9876 H         1 LIG         0.1699 
     40 H18       -73.5083  -55.8693  -74.6594 H         1 LIG         0.1489 
     41 HN10      -70.8921  -52.7690  -70.2625 H         1 LIG         0.3577 
     42 H21       -71.4811  -55.5229  -70.8924 H         1 LIG         0.1796 
@<TRIPOS>BOND
     1    1    4 1    
     2    1    5 ar   
     3    1   17 ar   
     4    2    4 2    
     5    3    9 1    
     6    3   22 1    
     7    3   23 1    
     8    3   24 1    
     9    4    6 1    
    10    5   20 ar   
    11    5   25 1    
    12    6   14 1    
    13    7    8 1    
    14    7   12 1    
    15    7   26 1    
    16    7   27 1    
    17    8   10 1    
    18    8   28 1    
    19    8   29 1    
    20    9   10 1    
    21    9   12 1    
    22    9   30 1    
    23   10   11 1    
    24   10   31 1    
    25   11   14 1    
    26   11   32 1    
    27   11   33 1    
    28   12   13 1    
    29   12   34 1    
    30   13   14 1    
    31   13   35 1    
    32   13   36 1    
    33   14   37 1    
    34   15   19 ar   
    35   15   21 ar   
    36   15   38 1    
    37   16   17 ar   
    38   16   20 ar   
    39   16   21 ar   
    40   17   18 ar   
    41   18   19 ar   
    42   18   39 1    
    43   19   40 1    
    44   20   41 1    
    45   21   42 1    
@<TRIPOS>SUBSTRUCTURE
     1 LIG         1 GROUP             0       ****    0 ROOT    
