@<TRIPOS>MOLECULE
:4j3l_ligand
45   47    1
SMALL
USER_CHARGES


@<TRIPOS>ATOM
      1 C4          2.5620  -10.4020   -1.6490 C.3       1 LIG         0.0800 
      2 C6          2.4150  -11.5620   -3.8310 C.2       1 LIG         0.6150 
      3 C8          2.5340  -11.5870   -5.3360 C.ar      1 LIG        -0.1150 
      4 C10         3.4080  -10.6770   -7.3970 C.ar      1 LIG        -0.1150 
      5 C13         4.4130  -11.8280  -10.0450 C.ar      1 LIG        -0.1150 
      6 C15         3.8080  -12.1310  -12.3770 C.ar      1 LIG         0.0000 
      7 C17         5.5600  -12.4170  -14.3080 C.3       1 LIG        -0.1800 
      8 C24         2.0720  -11.9610  -10.6230 C.ar      1 LIG        -0.1150 
      9 C1          6.3600  -10.3350   -1.0990 C.3       1 LIG         0.1100 
     10 O2          5.0130  -10.7520   -1.4070 O.3       1 LIG        -0.4000 
     11 C3          3.9170   -9.8240   -1.1740 C.3       1 LIG         0.1400 
     12 N5          2.6080  -10.4470   -3.1130 N.am      1 LIG        -0.5000 
     13 O7          2.2230  -12.6190   -3.2440 O.2       1 LIG        -0.5000 
     14 C9          3.2680  -10.6130   -6.0170 C.ar      1 LIG        -0.1150 
     15 C11         2.8120  -11.6940   -8.1710 C.ar      1 LIG         0.0000 
     16 C12         3.0630  -11.7850   -9.6500 C.ar      1 LIG         0.0000 
     17 C14         4.8060  -11.9700  -11.3620 C.ar      1 LIG        -0.1150 
     18 C16         4.1060  -12.3390  -13.8290 C.ar      1 LIG         0.0000 
     19 C18         3.0630  -12.5230  -14.7350 C.ar      1 LIG        -0.1717 
     20 C19         1.7260  -12.4890  -14.2360 C.ar      1 LIG         0.5567 
     21 O20         0.7460  -12.6620  -14.9810 O.2       1 LIG        -0.5000 
     22 N21         1.4790  -12.2780  -12.9110 N.pl3     1 LIG        -0.3850 
     23 C23         2.4400  -12.1100  -11.9580 C.ar      1 LIG         0.0850 
     24 C25         2.0580  -12.7070   -7.4760 C.ar      1 LIG         0.1800 
     25 CL          1.2420  -14.0720   -8.2460 Cl        1 LIG        -0.1800 
     26 C27         1.9420  -12.6350   -6.0830 C.ar      1 LIG        -0.1150 
     27 H41         1.7491   -9.7378   -1.3547 H         1 LIG         0.0600 
     28 H42         2.3739  -11.3645   -1.1716 H         1 LIG         0.0600 
     29 H10         3.9902   -9.9147   -7.8912 H         1 LIG         0.1150 
     30 H13         5.1805  -11.7547   -9.2901 H         1 LIG         0.1150 
     31 H171        5.6143  -12.4945  -15.3941 H         1 LIG         0.0600 
     32 H172        6.1304  -11.5448  -13.9998 H         1 LIG         0.0600 
     33 H173        6.0547  -13.2893  -13.8867 H         1 LIG         0.0600 
     34 H24         1.0315  -11.9653  -10.3339 H         1 LIG         0.1150 
     35 H11         7.0602  -11.1401   -1.3213 H         1 LIG         0.0300 
     36 H12         6.6385   -9.4650   -1.6935 H         1 LIG         0.0300 
     37 H13         6.4521  -10.0799   -0.0430 H         1 LIG         0.0300 
     38 H31         3.8690   -9.6088   -0.1061 H         1 LIG         0.0300 
     39 H32         4.1254   -8.8784   -1.6774 H         1 LIG         0.0300 
     40 HN5         2.7995   -9.5838   -3.6008 H         1 LIG         0.3000 
     41 H9          3.7502   -9.8105   -5.4788 H         1 LIG         0.1150 
     42 H14         5.8545  -11.9996  -11.6140 H         1 LIG         0.1150 
     43 H18         3.2531  -12.6983  -15.7835 H         1 LIG         0.1150 
     44 HN21        0.5179  -12.2944  -12.5922 H         1 LIG         0.3000 
     45 H27         1.3775  -13.4022   -5.5721 H         1 LIG         0.1150 
@<TRIPOS>BOND
     1    1   11 1    
     2    1   12 1    
     3    1   27 1    
     4    1   28 1    
     5    2    3 1    
     6    2   12 am   BACKBONE|DICT|INTERRES
     7    2   13 2    
     8    3   14 ar   
     9    3   26 ar   
    10    4   14 ar   
    11    4   15 ar   
    12    4   29 1    
    13    5   16 ar   
    14    5   17 ar   
    15    5   30 1    
    16    6   17 ar   
    17    6   18 ar   
    18    6   23 ar   
    19    7   18 1    
    20    7   31 1    
    21    7   32 1    
    22    7   33 1    
    23    8   16 ar   
    24    8   23 ar   
    25    8   34 1    
    26    9   10 1    
    27    9   35 1    
    28    9   36 1    
    29    9   37 1    
    30   10   11 1    
    31   11   38 1    
    32   11   39 1    
    33   12   40 1    
    34   14   41 1    
    35   15   16 1    
    36   15   24 ar   
    37   17   42 1    
    38   18   19 ar   
    39   19   20 ar   
    40   19   43 1    
    41   20   21 2    
    42   20   22 ar   
    43   22   23 ar   
    44   22   44 1    
    45   24   25 1    
    46   24   26 ar   
    47   26   45 1    
@<TRIPOS>SUBSTRUCTURE
     1 LIG         1 GROUP             0       ****    0 ROOT    
