:4j3l_ligand
                    3D
 Schrodinger Suite 2020-1.
 45 47  0  0  1  0            999 V2000
    2.5620  -10.4020   -1.6490 C   0  0  0  0  0  0
    2.4150  -11.5620   -3.8310 C   0  0  0  0  0  0
    2.5340  -11.5870   -5.3360 C   0  0  0  0  0  0
    3.4080  -10.6770   -7.3970 C   0  0  0  0  0  0
    4.4130  -11.8280  -10.0450 C   0  0  0  0  0  0
    3.8080  -12.1310  -12.3770 C   0  0  0  0  0  0
    5.5600  -12.4170  -14.3080 C   0  0  0  0  0  0
    2.0720  -11.9610  -10.6230 C   0  0  0  0  0  0
    6.3600  -10.3350   -1.0990 C   0  0  0  0  0  0
    5.0130  -10.7520   -1.4070 O   0  0  0  0  0  0
    3.9170   -9.8240   -1.1740 C   0  0  0  0  0  0
    2.6080  -10.4470   -3.1130 N   0  0  0  0  0  0
    2.2230  -12.6190   -3.2440 O   0  0  0  0  0  0
    3.2680  -10.6130   -6.0170 C   0  0  0  0  0  0
    2.8120  -11.6940   -8.1710 C   0  0  0  0  0  0
    3.0630  -11.7850   -9.6500 C   0  0  0  0  0  0
    4.8060  -11.9700  -11.3620 C   0  0  0  0  0  0
    4.1060  -12.3390  -13.8290 C   0  0  0  0  0  0
    3.0630  -12.5230  -14.7350 C   0  0  0  0  0  0
    1.7260  -12.4890  -14.2360 C   0  0  0  0  0  0
    0.7460  -12.6620  -14.9810 O   0  0  0  0  0  0
    1.4790  -12.2780  -12.9110 N   0  0  0  0  0  0
    2.4400  -12.1100  -11.9580 C   0  0  0  0  0  0
    2.0580  -12.7070   -7.4760 C   0  0  0  0  0  0
    1.2420  -14.0720   -8.2460 Cl  0  0  0  0  0  0
    1.9420  -12.6350   -6.0830 C   0  0  0  0  0  0
    1.7491   -9.7378   -1.3547 H   0  0  0  0  0  0
    2.3739  -11.3645   -1.1716 H   0  0  0  0  0  0
    3.9902   -9.9147   -7.8912 H   0  0  0  0  0  0
    5.1805  -11.7547   -9.2901 H   0  0  0  0  0  0
    5.6143  -12.4945  -15.3941 H   0  0  0  0  0  0
    6.1304  -11.5448  -13.9998 H   0  0  0  0  0  0
    6.0547  -13.2893  -13.8867 H   0  0  0  0  0  0
    1.0315  -11.9653  -10.3339 H   0  0  0  0  0  0
    7.0602  -11.1401   -1.3213 H   0  0  0  0  0  0
    6.6385   -9.4650   -1.6935 H   0  0  0  0  0  0
    6.4521  -10.0799   -0.0430 H   0  0  0  0  0  0
    3.8690   -9.6088   -0.1061 H   0  0  0  0  0  0
    4.1254   -8.8784   -1.6774 H   0  0  0  0  0  0
    2.7995   -9.5838   -3.6008 H   0  0  0  0  0  0
    3.7502   -9.8105   -5.4788 H   0  0  0  0  0  0
    5.8545  -11.9996  -11.6140 H   0  0  0  0  0  0
    3.2531  -12.6983  -15.7835 H   0  0  0  0  0  0
    0.5179  -12.2944  -12.5922 H   0  0  0  0  0  0
    1.3775  -13.4022   -5.5721 H   0  0  0  0  0  0
  1 11  1  0  0  0
  1 12  1  0  0  0
  1 27  1  0  0  0
  1 28  1  0  0  0
  2  3  1  0  0  0
  2 12  1  0  0  0
  2 13  2  0  0  0
  3 14  2  0  0  0
  3 26  1  0  0  0
  4 14  1  0  0  0
  4 15  2  0  0  0
  4 29  1  0  0  0
  5 16  2  0  0  0
  5 17  1  0  0  0
  5 30  1  0  0  0
  6 17  2  0  0  0
  6 18  1  0  0  0
  6 23  1  0  0  0
  7 18  1  0  0  0
  7 31  1  0  0  0
  7 32  1  0  0  0
  7 33  1  0  0  0
  8 16  1  0  0  0
  8 23  2  0  0  0
  8 34  1  0  0  0
  9 10  1  0  0  0
  9 35  1  0  0  0
  9 36  1  0  0  0
  9 37  1  0  0  0
 10 11  1  0  0  0
 11 38  1  0  0  0
 11 39  1  0  0  0
 12 40  1  0  0  0
 14 41  1  0  0  0
 15 16  1  0  0  0
 15 24  1  0  0  0
 17 42  1  0  0  0
 18 19  2  0  0  0
 19 20  1  0  0  0
 19 43  1  0  0  0
 20 21  2  0  0  0
 20 22  1  0  0  0
 22 23  1  0  0  0
 22 44  1  0  0  0
 24 25  1  0  0  0
 24 26  2  0  0  0
 26 45  1  0  0  0
M  END
> <s_pdb_PDB_ID>


> <s_pdb_PDB_CLASSIFICATION>
4J3L_PROTEIN

> <s_pdb_PDB_format_version>
3.0

> <b_ppw_prepared>
1

> <s_ppw_prepared_with_version>
2020-1

> <b_ppw_created_disulfur>
1

> <s_ppw_het_states>
eJxlk0EOgzAMBL8ScaZVEogd+pWKH6DeekL8vYkNbJxyQOuV8cQbsQ9xeLl3eUJOYXR+HV2VEXKCnCETJEEyZIZcbkkeEjQCjUAj0Ag0Ao1AI9AINAaNQWPQGDQGjUFjoVV95qPnDudiakQYVUpixvjrqFtGxKu7GqOCA1LXDmskfJLEoN5gfEKXEY2Ruw5ujs59R74oxuBml0U6/N0hsk2MUjdDDcZypJTlHkoylDFUpFxoNAZCFtnuIvPlXq0hiRXn4Z9lxj5MeebyO2hZqhRKVYqQ5mN0n++26Xtdjx8SBqze

> <r_ff_Potential_Energy-OPLS3e>
-70774.4026774887

> <r_ff_RMS_Derivative-OPLS3e>
0.0395571874031752

> <b_ff_Minimization_Converged-OPLS3e>
1

> <r_i_Potential_Energy-OPLS_2005>
-6193.87014898084

> <r_i_RMS_Derivative-OPLS_2005>
0.0403102456615999

> <r_i_Max_Derivative-OPLS_2005>
1.10486223553378

> <r_i_Stretch_Energy-OPLS_2005>
6.62787224787831

> <r_i_Bend_Energy-OPLS_2005>
182.722707316078

> <r_i_LJ-14_Energy-OPLS_2005>
297.641932223148

> <r_i_El-14_Energy-OPLS_2005>
-301.948803661771

> <r_i_Van_der_Waals_Energy-OPLS_2005>
-429.000889107127

> <r_i_Electrostatic_Energy-OPLS_2005>
-6053.86392618782

> <r_i_Dihedral_Energy-OPLS_2005>
103.950958188775

> <r_i_target_temperature>
298

> <s_user_Residue_ID>
_:1

$$$$
