@<TRIPOS>MOLECULE
:4k18_ligand
43   46    1
SMALL
USER_CHARGES


@<TRIPOS>ATOM
      1 C1        -18.1740  -35.6130    5.2680 C.ar      1 LIG        -0.1150 
      2 C2        -18.5000  -36.9440    5.4710 C.ar      1 LIG        -0.1150 
      3 C3        -19.8300  -37.3080    5.7080 C.ar      1 LIG         0.0350 
      4 C4        -20.8230  -36.3230    5.7260 C.ar      1 LIG        -0.1150 
      5 C5        -20.4750  -34.9980    5.5140 C.ar      1 LIG        -0.1150 
      6 C6        -19.1570  -34.6410    5.2790 C.ar      1 LIG        -0.1150 
      7 C7        -18.7850  -33.1960    5.0640 C.3       1 LIG        -0.0050 
      8 C8        -18.1040  -32.9240    3.7450 C.ar      1 LIG         0.0180 
      9 C9        -17.2830  -31.8040    3.6440 C.ar      1 LIG        -0.1717 
     10 C10       -16.6640  -31.5480    2.4510 C.ar      1 LIG         0.6792 
     11 N11       -16.8720  -32.3630    1.3890 N.pl3     1 LIG         0.0695 
     12 C12       -17.6910  -33.4380    1.5310 C.ar      1 LIG         0.3710 
     13 N13       -18.2920  -33.7070    2.6940 N.pl3     1 LIG        -0.5717 
     14 C14       -17.7000  -34.0760    0.2850 C.ar      1 LIG        -0.2850 
     15 C15       -16.8830  -33.3420   -0.5850 C.ar      1 LIG         0.2660 
     16 N16       -16.3850  -32.3330    0.0780 N.2       1 LIG        -0.5310 
     17 C17       -18.4850  -35.2510   -0.0380 C.2       1 LIG         0.6150 
     18 O18       -18.4420  -35.6960   -1.1710 O.2       1 LIG        -0.5000 
     19 N19       -19.2610  -35.7310    0.9630 N.am      1 LIG        -0.3850 
     20 C20       -20.1380  -36.8230    0.9390 C.ar      1 LIG         0.0850 
     21 C21       -20.6640  -37.2430    2.1570 C.ar      1 LIG        -0.1150 
     22 C22       -21.5390  -38.3100    2.2120 C.ar      1 LIG        -0.1150 
     23 C23       -21.8950  -38.9580    1.0410 C.ar      1 LIG         0.2200 
     24 C24       -21.3790  -38.5500   -0.1760 C.ar      1 LIG        -0.1150 
     25 C25       -20.5070  -37.4770   -0.2310 C.ar      1 LIG        -0.1150 
     26 F26       -22.7450  -40.0030    1.0830 F         1 LIG        -0.2200 
     27 O27       -15.8660  -30.4810    2.2770 O.2       1 LIG        -0.5000 
     28 C28       -20.1680  -38.6770    5.9250 C.1       1 LIG         0.3950 
     29 N29       -20.4280  -39.7680    6.0960 N.1       1 LIG        -0.4300 
     30 H1        -17.1420  -35.3411    5.0973 H         1 LIG         0.1150 
     31 H2        -17.7181  -37.6906    5.4590 H         1 LIG         0.1150 
     32 H4        -21.8566  -36.5874    5.8966 H         1 LIG         0.1150 
     33 H5        -21.2617  -34.2641    5.4747 H         1 LIG         0.1150 
     34 H71       -18.1410  -32.8813    5.8867 H         1 LIG         0.0600 
     35 H72       -19.6717  -32.5674    5.0934 H         1 LIG         0.0600 
     36 H9        -17.1298  -31.1489    4.4887 H         1 LIG         0.1150 
     37 HN13      -18.8816  -34.5067    2.8558 H         1 LIG         0.3537 
     38 H15       -16.6450  -33.4938   -1.6278 H         1 LIG         0.0720 
     39 HN19      -19.1753  -35.2685    1.8493 H         1 LIG         0.3000 
     40 H21       -20.3862  -36.7331    3.0650 H         1 LIG         0.1150 
     41 H22       -21.9418  -38.6367    3.1596 H         1 LIG         0.1150 
     42 H24       -21.6263  -39.0994   -1.0573 H         1 LIG         0.1150 
     43 H25       -20.1604  -37.2004   -1.2106 H         1 LIG         0.1150 
@<TRIPOS>BOND
     1    1    2 ar   
     2    1    6 ar   
     3    1   30 1    
     4    2    3 ar   
     5    2   31 1    
     6    3    4 ar   
     7    3   28 1    
     8    4    5 ar   
     9    4   32 1    
    10    5    6 ar   
    11    5   33 1    
    12    6    7 1    
    13    7    8 1    
    14    7   34 1    
    15    7   35 1    
    16    8    9 ar   
    17    8   13 ar   
    18    9   10 ar   
    19    9   36 1    
    20   10   11 ar   
    21   10   27 2    
    22   11   12 ar   
    23   11   16 ar   
    24   12   13 ar   
    25   12   14 ar   
    26   13   37 1    
    27   14   15 ar   
    28   14   17 1    
    29   15   16 ar   
    30   15   38 1    
    31   17   18 2    
    32   17   19 am   BACKBONE|DICT|INTERRES
    33   19   20 1    
    34   19   39 1    
    35   20   21 ar   
    36   20   25 ar   
    37   21   22 ar   
    38   21   40 1    
    39   22   23 ar   
    40   22   41 1    
    41   23   24 ar   
    42   23   26 1    
    43   24   25 ar   
    44   24   42 1    
    45   25   43 1    
    46   28   29 3    
@<TRIPOS>SUBSTRUCTURE
     1 LIG         1 GROUP             0       ****    0 ROOT    
