@<TRIPOS>MOLECULE
:4kzu_ligand
27   29    1
SMALL
USER_CHARGES


@<TRIPOS>ATOM
      1 CAB        -7.7340   38.1610  -12.9490 C.2       1 LIG        -0.1150 
      2 CAD        -7.6420   37.8740  -14.2980 C.2       1 LIG         0.5850 
      3 OAH        -8.4190   38.4630  -15.0510 O.2       1 LIG        -0.4700 
      4 CAE        -6.7690   36.8540  -14.7060 C.ar      1 LIG        -0.1150 
      5 CAO        -6.5940   36.5230  -16.0290 C.ar      1 LIG        -0.1150 
      6 CAQ        -5.7040   35.4880  -16.3930 C.ar      1 LIG        -0.1150 
      7 CAR        -4.9710   34.7660  -15.4320 C.ar      1 LIG        -0.1150 
      8 CAP        -5.1610   35.0940  -14.0880 C.ar      1 LIG        -0.1150 
      9 CAF        -6.0290   36.1290  -13.7480 C.ar      1 LIG         0.0850 
     10 OAC        -6.1370   36.4590  -12.4280 O.3       1 LIG        -0.1700 
     11 CAA        -6.9120   37.4980  -12.0370 C.2       1 LIG         0.0850 
     12 CAG        -6.9310   37.6940  -10.6530 C.ar      1 LIG         0.0000 
     13 CAI        -6.2480   36.7750   -9.8480 C.ar      1 LIG        -0.1150 
     14 CAM        -6.2460   36.9350   -8.4790 C.ar      1 LIG        -0.1150 
     15 CAK        -6.9340   38.0140   -7.8960 C.ar      1 LIG         0.2000 
     16 BR1        -6.9600   38.2160   -5.9560 Br        1 LIG        -0.2000 
     17 CAL        -7.6110   38.9340   -8.6860 C.ar      1 LIG        -0.1150 
     18 CAJ        -7.6120   38.7680  -10.0550 C.ar      1 LIG        -0.1150 
     19 HAB        -8.3066   39.0179  -12.6805 H         1 LIG         0.1150 
     20 HAO        -7.1301   37.0550  -16.8014 H         1 LIG         0.1150 
     21 HAQ        -5.5564   35.2398  -17.4322 H         1 LIG         0.1150 
     22 HAR        -4.2881   33.9815  -15.7188 H         1 LIG         0.1150 
     23 HAP        -4.6166   34.5663  -13.3187 H         1 LIG         0.1150 
     24 HAI        -5.7196   35.9249  -10.2519 H         1 LIG         0.1150 
     25 HAM        -5.7227   36.2289   -7.8527 H         1 LIG         0.1150 
     26 HAL        -8.1318   39.7645   -8.2337 H         1 LIG         0.1150 
     27 HAJ        -8.1222   39.5136  -10.6417 H         1 LIG         0.1150 
@<TRIPOS>BOND
     1    1    2 1    
     2    1   11 2    
     3    1   19 1    
     4    2    3 2    
     5    2    4 1    
     6    4    5 ar   
     7    4    9 ar   
     8    5    6 ar   
     9    5   20 1    
    10    6    7 ar   
    11    6   21 1    
    12    7    8 ar   
    13    7   22 1    
    14    8    9 ar   
    15    8   23 1    
    16    9   10 1    
    17   10   11 1    
    18   11   12 1    
    19   12   13 ar   
    20   12   18 ar   
    21   13   14 ar   
    22   13   24 1    
    23   14   15 ar   
    24   14   25 1    
    25   15   16 1    
    26   15   17 ar   
    27   17   18 ar   
    28   17   26 1    
    29   18   27 1    
@<TRIPOS>SUBSTRUCTURE
     1 LIG         1 GROUP             0       ****    0 ROOT    
