@<TRIPOS>MOLECULE
:3kgp_ligand
20   20    1
SMALL
USER_CHARGES


@<TRIPOS>ATOM
      1 C         -26.8620   86.4380  -12.0030 C.2       1 LIG         0.7150 
      2 O         -26.0450   85.9370  -11.2960 O.co2     1 LIG        -0.8000 
      3 C1        -27.9970   86.9950  -11.5950 C.ar      1 LIG        -0.1150 
      4 N1        -32.0180   89.9830  -10.9120 N.4       1 LIG        -0.3000 
      5 C2        -28.2980   86.9990  -10.1870 C.ar      1 LIG        -0.1150 
      6 C3        -29.4900   87.5790   -9.7190 C.ar      1 LIG        -0.1150 
      7 C4        -30.3970   88.1590  -10.6310 C.ar      1 LIG        -0.1150 
      8 C5        -30.1070   88.1560  -12.0110 C.ar      1 LIG        -0.1150 
      9 C6        -28.9210   87.5800  -12.4910 C.ar      1 LIG        -0.1150 
     10 C7        -31.6800   88.7790  -10.1280 C.3       1 LIG         0.3050 
     11 OXT       -26.3340   86.3040  -13.1500 O.co2     1 LIG        -0.8000 
     12 H11       -32.8786   90.3871  -10.5729 H         1 LIG         0.3300 
     13 H12       -31.2786   90.6666  -10.8142 H         1 LIG         0.3300 
     14 H13       -32.1284   89.7456  -11.8882 H         1 LIG         0.3300 
     15 H2        -27.6013   86.5904   -9.4840 H         1 LIG         0.1150 
     16 H3        -29.7152   87.5757   -8.6741 H         1 LIG         0.1150 
     17 H5        -30.7962   88.5796  -12.7263 H         1 LIG         0.1150 
     18 H6        -28.7219   87.5874  -13.5535 H         1 LIG         0.1150 
     19 H71       -32.5099   88.1588  -10.3442 H         1 LIG         0.0600 
     20 H72       -31.6687   88.9325   -9.0522 H         1 LIG         0.0600 
@<TRIPOS>BOND
     1    1    2 2    
     2    1    3 1    
     3    1   11 1    
     4    3    5 ar   
     5    3    9 ar   
     6    4   10 1    
     7    4   12 1    
     8    4   13 1    
     9    4   14 1    
    10    5    6 ar   
    11    5   15 1    
    12    6    7 ar   
    13    6   16 1    
    14    7    8 ar   
    15    7   10 1    
    16    8    9 ar   
    17    8   17 1    
    18    9   18 1    
    19   10   19 1    
    20   10   20 1    
@<TRIPOS>SUBSTRUCTURE
     1 LIG         1 GROUP             0       ****    0 ROOT    
